Circuit: * D:\Users\Dan\Documents\GitHub\ThesisWork\LTSpice\CSK_Ideal_FINAL.asc

Direct Newton iteration for .op point succeeded.
Ignoring empty pin current: Ix(u2:1)
Ignoring empty pin current: Ix(u2:2)
Ignoring empty pin current: Ix(u2:3)
Ignoring empty pin current: Ix(u1:1)
Ignoring empty pin current: Ix(u1:3)
Ignoring empty pin current: Ix(u3:1)
Ignoring empty pin current: Ix(u3:2)
Ignoring empty pin current: Ix(u4:1)
Ignoring empty pin current: Ix(u4:2)
Ignoring empty pin current: Ix(u11:1)
Ignoring empty pin current: Ix(u11:2)
Ignoring empty pin current: Ix(u12:1)
Ignoring empty pin current: Ix(u12:2)
Ignoring empty pin current: Ix(u13:1)
Ignoring empty pin current: Ix(u13:2)
Ignoring empty pin current: Ix(u14:1)
Ignoring empty pin current: Ix(u14:2)
Ignoring empty pin current: Ix(u15:1)
Ignoring empty pin current: Ix(u15:2)
Ignoring empty pin current: Ix(x1:vcc)
Ignoring empty pin current: Ix(x1:vss)
Ignoring empty pin current: Ix(x1:in)
Ignoring empty pin current: Ix(x2:vcc)
Ignoring empty pin current: Ix(x2:vss)
Ignoring empty pin current: Ix(x2:in)
Ignoring empty pin current: Ix(u2:1)
Ignoring empty pin current: Ix(u2:2)
Ignoring empty pin current: Ix(u2:3)
Ignoring empty pin current: Ix(u1:1)
Ignoring empty pin current: Ix(u1:3)
Ignoring empty pin current: Ix(u3:1)
Ignoring empty pin current: Ix(u3:2)
Ignoring empty pin current: Ix(u4:1)
Ignoring empty pin current: Ix(u4:2)
Ignoring empty pin current: Ix(u11:1)
Ignoring empty pin current: Ix(u11:2)
Ignoring empty pin current: Ix(u12:1)
Ignoring empty pin current: Ix(u12:2)
Ignoring empty pin current: Ix(u13:1)
Ignoring empty pin current: Ix(u13:2)
Ignoring empty pin current: Ix(u14:1)
Ignoring empty pin current: Ix(u14:2)
Ignoring empty pin current: Ix(u15:1)
Ignoring empty pin current: Ix(u15:2)
Ignoring empty pin current: Ix(x1:vcc)
Ignoring empty pin current: Ix(x1:vss)
Ignoring empty pin current: Ix(x1:in)
Ignoring empty pin current: Ix(x2:vcc)
Ignoring empty pin current: Ix(x2:vss)
Ignoring empty pin current: Ix(x2:in)

Date: Sun Feb 12 22:52:47 2017
Total elapsed time: 30.696 seconds.

tnom = 27
temp = 27
method = modified trap
totiter = 1131349
traniter = 1131344
tranpoints = 268523
accept = 221596
rejected = 46927
matrix size = 88
fillins = 49
solver = Alternate
Thread vector: 30.7/10.1[4] 5.8/2.3[4] 5.1/1.6[4] 0.9/1.0[1]  2592/500
Matrix Compiler1: 7.08 KB object code size  1.8/1.4/[0.7]
Matrix Compiler2: 8.45 KB object code size  1.1/1.4/[0.7]


