Circuit: * D:\Users\Dan\Documents\GitHub\ThesisWork\LTSpice\CSK_Ideal.asc

Instance "m:x2:u1:4": Length shorter than recommended for a level 1 MOSFET.
Instance "m:x2:u1:3": Length shorter than recommended for a level 1 MOSFET.
Instance "m:x2:u1:1": Length shorter than recommended for a level 1 MOSFET.
Instance "m:x2:u1:2:2": Length shorter than recommended for a level 1 MOSFET.
Instance "m:x2:u1:1:2": Length shorter than recommended for a level 1 MOSFET.
Instance "m:x2:u1:8": Length shorter than recommended for a level 1 MOSFET.
Instance "m:x2:u1:7": Length shorter than recommended for a level 1 MOSFET.
Instance "m:x2:u1:2:1": Length shorter than recommended for a level 1 MOSFET.
Instance "m:x2:u1:1:1": Length shorter than recommended for a level 1 MOSFET.
Instance "m:x1:u1:4": Length shorter than recommended for a level 1 MOSFET.
Instance "m:x1:u1:3": Length shorter than recommended for a level 1 MOSFET.
Instance "m:x1:u1:1": Length shorter than recommended for a level 1 MOSFET.
Instance "m:x1:u1:2:2": Length shorter than recommended for a level 1 MOSFET.
Instance "m:x1:u1:1:2": Length shorter than recommended for a level 1 MOSFET.
Instance "m:x1:u1:8": Length shorter than recommended for a level 1 MOSFET.
Instance "m:x1:u1:7": Length shorter than recommended for a level 1 MOSFET.
Instance "m:x1:u1:2:1": Length shorter than recommended for a level 1 MOSFET.
Instance "m:x1:u1:1:1": Length shorter than recommended for a level 1 MOSFET.
Direct Newton iteration for .op point succeeded.
Ignoring empty pin current: Ix(1:1)
Ignoring empty pin current: Ix(1:2)
Ignoring empty pin current: Ix(1:3)
Ignoring empty pin current: Ix(1:4)
Ignoring empty pin current: Ix(2:1)
Ignoring empty pin current: Ix(2:2)
Ignoring empty pin current: Ix(2:3)
Ignoring empty pin current: Ix(2:4)
Ignoring empty pin current: Ix(u2:1)
Ignoring empty pin current: Ix(u2:2)
Ignoring empty pin current: Ix(u2:3)
Ignoring empty pin current: Ix(u4:1)
Ignoring empty pin current: Ix(u4:2)
Ignoring empty pin current: Ix(u4:3)
Ignoring empty pin current: Ix(u3:1)
Ignoring empty pin current: Ix(u3:2)
Ignoring empty pin current: Ix(u3:3)
Ignoring empty pin current: Ix(u11:1)
Ignoring empty pin current: Ix(u11:2)
Ignoring empty pin current: Ix(u12:1)
Ignoring empty pin current: Ix(u12:2)
Ignoring empty pin current: Ix(u13:1)
Ignoring empty pin current: Ix(u13:2)
Ignoring empty pin current: Ix(u14:1)
Ignoring empty pin current: Ix(u14:2)
Ignoring empty pin current: Ix(u15:1)
Ignoring empty pin current: Ix(u15:2)
Ignoring empty pin current: Ix(x1:gnd)
Ignoring empty pin current: Ix(x1:msg)
Ignoring empty pin current: Ix(x2:gnd)
Ignoring empty pin current: Ix(x2:msg)
Ignoring empty pin current: Ix(1:1)
Ignoring empty pin current: Ix(1:2)
Ignoring empty pin current: Ix(1:3)
Ignoring empty pin current: Ix(1:4)
Ignoring empty pin current: Ix(2:1)
Ignoring empty pin current: Ix(2:2)
Ignoring empty pin current: Ix(2:3)
Ignoring empty pin current: Ix(2:4)
Ignoring empty pin current: Ix(u2:1)
Ignoring empty pin current: Ix(u2:2)
Ignoring empty pin current: Ix(u2:3)
Ignoring empty pin current: Ix(u4:1)
Ignoring empty pin current: Ix(u4:2)
Ignoring empty pin current: Ix(u4:3)
Ignoring empty pin current: Ix(u3:1)
Ignoring empty pin current: Ix(u3:2)
Ignoring empty pin current: Ix(u3:3)
Ignoring empty pin current: Ix(u11:1)
Ignoring empty pin current: Ix(u11:2)
Ignoring empty pin current: Ix(u12:1)
Ignoring empty pin current: Ix(u12:2)
Ignoring empty pin current: Ix(u13:1)
Ignoring empty pin current: Ix(u13:2)
Ignoring empty pin current: Ix(u14:1)
Ignoring empty pin current: Ix(u14:2)
Ignoring empty pin current: Ix(u15:1)
Ignoring empty pin current: Ix(u15:2)
Ignoring empty pin current: Ix(x1:gnd)
Ignoring empty pin current: Ix(x1:msg)
Ignoring empty pin current: Ix(x2:gnd)
Ignoring empty pin current: Ix(x2:msg)

Date: Mon Nov 14 23:15:50 2016
Total elapsed time: 5.263 seconds.

tnom = 27
temp = 27
method = modified trap
totiter = 119559
traniter = 119531
tranpoints = 29943
accept = 22487
rejected = 7456
matrix size = 132
fillins = 128
solver = Alternate
Thread vector: 123.0/77.7[4] 22.1/7.0[4] 15.2/6.3[4] 5.2/2.8[3]  2592/500
Matrix Compiler1: 20.80 KB object code size  9.4/6.5/[5.5]
Matrix Compiler2: 16.66 KB object code size  4.5/6.2/[3.3]


