Circuit: * D:\Users\Dan\Documents\GitHub\ThesisWork\LTSpice\CSK_Ideal_FINAL.asc

Direct Newton iteration for .op point succeeded.
Ignoring empty pin current: Ix(u2:1)
Ignoring empty pin current: Ix(u2:2)
Ignoring empty pin current: Ix(u2:3)
Ignoring empty pin current: Ix(u1:1)
Ignoring empty pin current: Ix(u1:3)
Ignoring empty pin current: Ix(u3:1)
Ignoring empty pin current: Ix(u3:2)
Ignoring empty pin current: Ix(u4:1)
Ignoring empty pin current: Ix(u4:2)
Ignoring empty pin current: Ix(u11:1)
Ignoring empty pin current: Ix(u11:2)
Ignoring empty pin current: Ix(u12:1)
Ignoring empty pin current: Ix(u12:2)
Ignoring empty pin current: Ix(u13:1)
Ignoring empty pin current: Ix(u13:2)
Ignoring empty pin current: Ix(u14:1)
Ignoring empty pin current: Ix(u14:2)
Ignoring empty pin current: Ix(u15:1)
Ignoring empty pin current: Ix(u15:2)
Ignoring empty pin current: Ix(x1:vcc)
Ignoring empty pin current: Ix(x1:vss)
Ignoring empty pin current: Ix(x1:in)
Ignoring empty pin current: Ix(x2:vcc)
Ignoring empty pin current: Ix(x2:vss)
Ignoring empty pin current: Ix(x2:in)
Ignoring empty pin current: Ix(u2:1)
Ignoring empty pin current: Ix(u2:2)
Ignoring empty pin current: Ix(u2:3)
Ignoring empty pin current: Ix(u1:1)
Ignoring empty pin current: Ix(u1:3)
Ignoring empty pin current: Ix(u3:1)
Ignoring empty pin current: Ix(u3:2)
Ignoring empty pin current: Ix(u4:1)
Ignoring empty pin current: Ix(u4:2)
Ignoring empty pin current: Ix(u11:1)
Ignoring empty pin current: Ix(u11:2)
Ignoring empty pin current: Ix(u12:1)
Ignoring empty pin current: Ix(u12:2)
Ignoring empty pin current: Ix(u13:1)
Ignoring empty pin current: Ix(u13:2)
Ignoring empty pin current: Ix(u14:1)
Ignoring empty pin current: Ix(u14:2)
Ignoring empty pin current: Ix(u15:1)
Ignoring empty pin current: Ix(u15:2)
Ignoring empty pin current: Ix(x1:vcc)
Ignoring empty pin current: Ix(x1:vss)
Ignoring empty pin current: Ix(x1:in)
Ignoring empty pin current: Ix(x2:vcc)
Ignoring empty pin current: Ix(x2:vss)
Ignoring empty pin current: Ix(x2:in)

Date: Tue Mar 14 20:18:42 2017
Total elapsed time: 5.994 seconds.

tnom = 27
temp = 27
method = modified trap
totiter = 237411
traniter = 237406
tranpoints = 59657
accept = 52028
rejected = 7629
matrix size = 88
fillins = 49
solver = Alternate
Thread vector: 40.7/13.6[4] 7.2/3.0[4] 6.4/2.1[4] 1.2/1.5[1]  2592/500
Matrix Compiler1: 7.08 KB object code size  2.5/1.7/[1.1]
Matrix Compiler2: 8.45 KB object code size  1.5/1.7/[1.0]


