Circuit: * D:\Users\Dan\Documents\GitHub\ThesisWork\LTSpice\CSK_TS_Ideal_04.asc

Instance "m:x6:u2:4": Length shorter than recommended for a level 1 MOSFET.
Instance "m:x6:u2:3": Length shorter than recommended for a level 1 MOSFET.
Instance "m:x6:u2:1": Length shorter than recommended for a level 1 MOSFET.
Instance "m:x6:u2:2:2": Length shorter than recommended for a level 1 MOSFET.
Instance "m:x6:u2:1:2": Length shorter than recommended for a level 1 MOSFET.
Instance "m:x6:u2:8": Length shorter than recommended for a level 1 MOSFET.
Instance "m:x6:u2:7": Length shorter than recommended for a level 1 MOSFET.
Instance "m:x6:u2:2:1": Length shorter than recommended for a level 1 MOSFET.
Instance "m:x6:u2:1:1": Length shorter than recommended for a level 1 MOSFET.
Instance "m:x5:u2:4": Length shorter than recommended for a level 1 MOSFET.
Instance "m:x5:u2:3": Length shorter than recommended for a level 1 MOSFET.
Instance "m:x5:u2:1": Length shorter than recommended for a level 1 MOSFET.
Instance "m:x5:u2:2:2": Length shorter than recommended for a level 1 MOSFET.
Instance "m:x5:u2:1:2": Length shorter than recommended for a level 1 MOSFET.
Instance "m:x5:u2:8": Length shorter than recommended for a level 1 MOSFET.
Instance "m:x5:u2:7": Length shorter than recommended for a level 1 MOSFET.
Instance "m:x5:u2:2:1": Length shorter than recommended for a level 1 MOSFET.
Instance "m:x5:u2:1:1": Length shorter than recommended for a level 1 MOSFET.
Instance "m:x4:u2:4": Length shorter than recommended for a level 1 MOSFET.
Instance "m:x4:u2:3": Length shorter than recommended for a level 1 MOSFET.
Instance "m:x4:u2:1": Length shorter than recommended for a level 1 MOSFET.
Instance "m:x4:u2:2:2": Length shorter than recommended for a level 1 MOSFET.
Instance "m:x4:u2:1:2": Length shorter than recommended for a level 1 MOSFET.
Instance "m:x4:u2:8": Length shorter than recommended for a level 1 MOSFET.
Instance "m:x4:u2:7": Length shorter than recommended for a level 1 MOSFET.
Instance "m:x4:u2:2:1": Length shorter than recommended for a level 1 MOSFET.
Instance "m:x4:u2:1:1": Length shorter than recommended for a level 1 MOSFET.
Instance "m:x1:u2:4": Length shorter than recommended for a level 1 MOSFET.
Instance "m:x1:u2:3": Length shorter than recommended for a level 1 MOSFET.
Instance "m:x1:u2:1": Length shorter than recommended for a level 1 MOSFET.
Instance "m:x1:u2:2:2": Length shorter than recommended for a level 1 MOSFET.
Instance "m:x1:u2:1:2": Length shorter than recommended for a level 1 MOSFET.
Instance "m:x1:u2:8": Length shorter than recommended for a level 1 MOSFET.
Instance "m:x1:u2:7": Length shorter than recommended for a level 1 MOSFET.
Instance "m:x1:u2:2:1": Length shorter than recommended for a level 1 MOSFET.
Instance "m:x1:u2:1:1": Length shorter than recommended for a level 1 MOSFET.
Instance "m:x3:u2:4": Length shorter than recommended for a level 1 MOSFET.
Instance "m:x3:u2:3": Length shorter than recommended for a level 1 MOSFET.
Instance "m:x3:u2:1": Length shorter than recommended for a level 1 MOSFET.
Instance "m:x3:u2:2:2": Length shorter than recommended for a level 1 MOSFET.
Instance "m:x3:u2:1:2": Length shorter than recommended for a level 1 MOSFET.
Instance "m:x3:u2:8": Length shorter than recommended for a level 1 MOSFET.
Instance "m:x3:u2:7": Length shorter than recommended for a level 1 MOSFET.
Instance "m:x3:u2:2:1": Length shorter than recommended for a level 1 MOSFET.
Instance "m:x3:u2:1:1": Length shorter than recommended for a level 1 MOSFET.
Instance "m:x2:u2:4": Length shorter than recommended for a level 1 MOSFET.
Instance "m:x2:u2:3": Length shorter than recommended for a level 1 MOSFET.
Instance "m:x2:u2:1": Length shorter than recommended for a level 1 MOSFET.
Instance "m:x2:u2:2:2": Length shorter than recommended for a level 1 MOSFET.
Instance "m:x2:u2:1:2": Length shorter than recommended for a level 1 MOSFET.
Instance "m:x2:u2:8": Length shorter than recommended for a level 1 MOSFET.
Instance "m:x2:u2:7": Length shorter than recommended for a level 1 MOSFET.
Instance "m:x2:u2:2:1": Length shorter than recommended for a level 1 MOSFET.
Instance "m:x2:u2:1:1": Length shorter than recommended for a level 1 MOSFET.
Direct Newton iteration failed to find .op point.  (Use ".option noopiter" to skip.)
Starting Gmin stepping
Gmin = 10
Gmin = 1.07374
Gmin = 0.115292
Gmin = 0.0123794
Gmin = 0.00132923
Gmin = 0.000142725
Gmin = 1.5325e-005
Gmin = 1.6455e-006
Gmin = 1.76685e-007
Gmin = 1.89714e-008
Gmin = 2.03704e-009
Gmin = 2.18725e-010
Gmin = 2.34854e-011
Gmin = 2.52173e-012
Gmin = 2.70769e-013
Gmin = 0
Gmin stepping succeeded in finding the operating point.

Ignoring empty pin current: Ix(1:1)
Ignoring empty pin current: Ix(1:2)
Ignoring empty pin current: Ix(1:3)
Ignoring empty pin current: Ix(1:4)
Ignoring empty pin current: Ix(2:1)
Ignoring empty pin current: Ix(2:2)
Ignoring empty pin current: Ix(2:3)
Ignoring empty pin current: Ix(2:4)
Ignoring empty pin current: Ix(u2:1)
Ignoring empty pin current: Ix(u2:2)
Ignoring empty pin current: Ix(u7:1)
Ignoring empty pin current: Ix(u7:3)
Ignoring empty pin current: Ix(u9:1)
Ignoring empty pin current: Ix(u9:2)
Ignoring empty pin current: Ix(u9:3)
Ignoring empty pin current: Ix(u8:1)
Ignoring empty pin current: Ix(u8:2)
Ignoring empty pin current: Ix(u8:3)
Ignoring empty pin current: Ix(u3:1)
Ignoring empty pin current: Ix(u3:2)
Ignoring empty pin current: Ix(u4:1)
Ignoring empty pin current: Ix(u4:2)
Ignoring empty pin current: Ix(u10:1)
Ignoring empty pin current: Ix(u10:2)
Ignoring empty pin current: Ix(1:1)
Ignoring empty pin current: Ix(1:2)
Ignoring empty pin current: Ix(1:3)
Ignoring empty pin current: Ix(1:4)
Ignoring empty pin current: Ix(2:1)
Ignoring empty pin current: Ix(2:2)
Ignoring empty pin current: Ix(2:3)
Ignoring empty pin current: Ix(2:4)
Ignoring empty pin current: Ix(u2:1)
Ignoring empty pin current: Ix(u2:2)
Ignoring empty pin current: Ix(u7:1)
Ignoring empty pin current: Ix(u7:3)
Ignoring empty pin current: Ix(u9:1)
Ignoring empty pin current: Ix(u9:2)
Ignoring empty pin current: Ix(u9:3)
Ignoring empty pin current: Ix(u8:1)
Ignoring empty pin current: Ix(u8:2)
Ignoring empty pin current: Ix(u8:3)
Ignoring empty pin current: Ix(u3:1)
Ignoring empty pin current: Ix(u3:2)
Ignoring empty pin current: Ix(u4:1)
Ignoring empty pin current: Ix(u4:2)
Ignoring empty pin current: Ix(u10:1)
Ignoring empty pin current: Ix(u10:2)

Date: Mon Dec 05 23:07:08 2016
Total elapsed time: 28.799 seconds.

tnom = 27
temp = 27
method = modified trap
totiter = 255756
traniter = 255374
tranpoints = 59983
accept = 44643
rejected = 15340
matrix size = 310
fillins = 328
solver = Alternate
Thread vector: 118.3/46.2[4] 30.4/11.7[4] 13.7/5.6[4] 4.8/4.1[2]  2592/500
Matrix Compiler1: 56.88 KB object code size  14.6/9.2/[6.2]
Matrix Compiler2: 43.36 KB object code size  8.5/7.9/[3.7]


