Circuit: * /Users/Dan/Documents/ThesisWork/LTSpice/CSK_LT1057.asc

WARNING: Less than two connections to node M.  This node is used by V3.
Early termination of direct N-R iteration.
Direct Newton iteration failed to find .op point.  (Use ".option noopiter" to skip.)
Starting Gmin stepping
Gmin = 10
Gmin = 1.07374
Gmin = 0.115292
Gmin = 0.0123794
Gmin = 0.00132923
Gmin = 0.000142725
Gmin = 1.5325e-05
Gmin = 1.6455e-06
Gmin = 1.76685e-07
Gmin = 1.89714e-08
Gmin = 2.03704e-09
Gmin = 2.18725e-10
Gmin = 2.34854e-11
Gmin = 2.52173e-12
Gmin = 2.70769e-13
Gmin = 0
Gmin stepping succeeded in finding the operating point.


Date: Thu Dec 22 13:52:17 2016
Total elapsed time: 110.142 seconds.

tnom = 27
temp = 27
method = modified trap
totiter = 777857
traniter = 777450
tranpoints = 173280
accept = 129858
rejected = 43422
matrix size = 77
fillins = 191
solver = Alternate
Thread vector: 145.3/49.1[4] 27.1/20.4[4] 17.6/11.6[4] 2.5/4.9[1]  2592/500
Matrix Compiler1: 17944 object code size  9.4/7.0/[4.0]
Matrix Compiler2: off

