Circuit: * /Users/Dan/Documents/ThesisWork/LTSpice/CSK_TS_Ideal.asc

WARNING: Less than two connections to node NC_01.  This node is used by R22.
WARNING: Less than two connections to node NC_02.  This node is used by R23.
Instance "m:x3:u2:4": Length shorter than recommended for a level 1 MOSFET.
Instance "m:x3:u2:3": Length shorter than recommended for a level 1 MOSFET.
Instance "m:x3:u2:1": Length shorter than recommended for a level 1 MOSFET.
Instance "m:x3:u2:2:2": Length shorter than recommended for a level 1 MOSFET.
Instance "m:x3:u2:1:2": Length shorter than recommended for a level 1 MOSFET.
Instance "m:x3:u2:8": Length shorter than recommended for a level 1 MOSFET.
Instance "m:x3:u2:7": Length shorter than recommended for a level 1 MOSFET.
Instance "m:x3:u2:2:1": Length shorter than recommended for a level 1 MOSFET.
Instance "m:x3:u2:1:1": Length shorter than recommended for a level 1 MOSFET.
Instance "m:x2:u2:4": Length shorter than recommended for a level 1 MOSFET.
Instance "m:x2:u2:3": Length shorter than recommended for a level 1 MOSFET.
Instance "m:x2:u2:1": Length shorter than recommended for a level 1 MOSFET.
Instance "m:x2:u2:2:2": Length shorter than recommended for a level 1 MOSFET.
Instance "m:x2:u2:1:2": Length shorter than recommended for a level 1 MOSFET.
Instance "m:x2:u2:8": Length shorter than recommended for a level 1 MOSFET.
Instance "m:x2:u2:7": Length shorter than recommended for a level 1 MOSFET.
Instance "m:x2:u2:2:1": Length shorter than recommended for a level 1 MOSFET.
Instance "m:x2:u2:1:1": Length shorter than recommended for a level 1 MOSFET.
Instance "m:x1:u2:4": Length shorter than recommended for a level 1 MOSFET.
Instance "m:x1:u2:3": Length shorter than recommended for a level 1 MOSFET.
Instance "m:x1:u2:1": Length shorter than recommended for a level 1 MOSFET.
Instance "m:x1:u2:2:2": Length shorter than recommended for a level 1 MOSFET.
Instance "m:x1:u2:1:2": Length shorter than recommended for a level 1 MOSFET.
Instance "m:x1:u2:8": Length shorter than recommended for a level 1 MOSFET.
Instance "m:x1:u2:7": Length shorter than recommended for a level 1 MOSFET.
Instance "m:x1:u2:2:1": Length shorter than recommended for a level 1 MOSFET.
Instance "m:x1:u2:1:1": Length shorter than recommended for a level 1 MOSFET.
Direct Newton iteration failed to find .op point.  (Use ".option noopiter" to skip.)
Starting Gmin stepping
Gmin = 10
Gmin = 1.07374
Gmin = 0.115292
Gmin = 0.0123794
Gmin = 0.00132923
Gmin = 0.000142725
Gmin = 1.5325e-05
Gmin = 1.6455e-06
Gmin = 1.76685e-07
Gmin = 1.89714e-08
Gmin = 2.03704e-09
Gmin = 2.18725e-10
Gmin = 2.34854e-11
Gmin = 2.52173e-12
Gmin = 2.70769e-13
Gmin = 0
Gmin stepping succeeded in finding the operating point.

Ignoring empty pin current: Ix(1:1)
Ignoring empty pin current: Ix(1:2)
Ignoring empty pin current: Ix(1:3)
Ignoring empty pin current: Ix(1:4)
Ignoring empty pin current: Ix(2:1)
Ignoring empty pin current: Ix(2:2)
Ignoring empty pin current: Ix(2:3)
Ignoring empty pin current: Ix(2:4)
Ignoring empty pin current: Ix(u7:1)
Ignoring empty pin current: Ix(u7:2)
Ignoring empty pin current: Ix(u7:3)
Ignoring empty pin current: Ix(u9:1)
Ignoring empty pin current: Ix(u9:2)
Ignoring empty pin current: Ix(u9:3)
Ignoring empty pin current: Ix(u8:1)
Ignoring empty pin current: Ix(u8:2)
Ignoring empty pin current: Ix(u8:3)
Ignoring empty pin current: Ix(u14:1)
Ignoring empty pin current: Ix(u14:2)
Ignoring empty pin current: Ix(u15:1)
Ignoring empty pin current: Ix(u15:2)
Ignoring empty pin current: Ix(1:1)
Ignoring empty pin current: Ix(1:2)
Ignoring empty pin current: Ix(1:3)
Ignoring empty pin current: Ix(1:4)
Ignoring empty pin current: Ix(2:1)
Ignoring empty pin current: Ix(2:2)
Ignoring empty pin current: Ix(2:3)
Ignoring empty pin current: Ix(2:4)
Ignoring empty pin current: Ix(u7:1)
Ignoring empty pin current: Ix(u7:2)
Ignoring empty pin current: Ix(u7:3)
Ignoring empty pin current: Ix(u9:1)
Ignoring empty pin current: Ix(u9:2)
Ignoring empty pin current: Ix(u9:3)
Ignoring empty pin current: Ix(u8:1)
Ignoring empty pin current: Ix(u8:2)
Ignoring empty pin current: Ix(u8:3)
Ignoring empty pin current: Ix(u14:1)
Ignoring empty pin current: Ix(u14:2)
Ignoring empty pin current: Ix(u15:1)
Ignoring empty pin current: Ix(u15:2)

Date: Tue Nov 15 18:26:45 2016
Total elapsed time: 3.523 seconds.

tnom = 27
temp = 27
method = modified trap
totiter = 7179
traniter = 6797
tranpoints = 2192
accept = 1761
rejected = 431
matrix size = 200
fillins = 202
solver = Alternate
Thread vector: 260.0/118.6[4] 54.6/31.2[4] 23.3/14.6[4] 6.0/41.2[1]  2592/500
Matrix Compiler1: 34646 object code size  17.5/15.3/[7.8]
Matrix Compiler2:    1828 opcodes

