Circuit: * D:\Users\Dan\Documents\GitHub\ThesisWork\LTSpice\CSK_TS_Ideal_04.asc

Instance "m:x6:u2:4": Length shorter than recommended for a level 1 MOSFET.
Instance "m:x6:u2:3": Length shorter than recommended for a level 1 MOSFET.
Instance "m:x6:u2:1": Length shorter than recommended for a level 1 MOSFET.
Instance "m:x6:u2:2:2": Length shorter than recommended for a level 1 MOSFET.
Instance "m:x6:u2:1:2": Length shorter than recommended for a level 1 MOSFET.
Instance "m:x6:u2:8": Length shorter than recommended for a level 1 MOSFET.
Instance "m:x6:u2:7": Length shorter than recommended for a level 1 MOSFET.
Instance "m:x6:u2:2:1": Length shorter than recommended for a level 1 MOSFET.
Instance "m:x6:u2:1:1": Length shorter than recommended for a level 1 MOSFET.
Instance "m:x5:u2:4": Length shorter than recommended for a level 1 MOSFET.
Instance "m:x5:u2:3": Length shorter than recommended for a level 1 MOSFET.
Instance "m:x5:u2:1": Length shorter than recommended for a level 1 MOSFET.
Instance "m:x5:u2:2:2": Length shorter than recommended for a level 1 MOSFET.
Instance "m:x5:u2:1:2": Length shorter than recommended for a level 1 MOSFET.
Instance "m:x5:u2:8": Length shorter than recommended for a level 1 MOSFET.
Instance "m:x5:u2:7": Length shorter than recommended for a level 1 MOSFET.
Instance "m:x5:u2:2:1": Length shorter than recommended for a level 1 MOSFET.
Instance "m:x5:u2:1:1": Length shorter than recommended for a level 1 MOSFET.
Instance "m:x4:u2:4": Length shorter than recommended for a level 1 MOSFET.
Instance "m:x4:u2:3": Length shorter than recommended for a level 1 MOSFET.
Instance "m:x4:u2:1": Length shorter than recommended for a level 1 MOSFET.
Instance "m:x4:u2:2:2": Length shorter than recommended for a level 1 MOSFET.
Instance "m:x4:u2:1:2": Length shorter than recommended for a level 1 MOSFET.
Instance "m:x4:u2:8": Length shorter than recommended for a level 1 MOSFET.
Instance "m:x4:u2:7": Length shorter than recommended for a level 1 MOSFET.
Instance "m:x4:u2:2:1": Length shorter than recommended for a level 1 MOSFET.
Instance "m:x4:u2:1:1": Length shorter than recommended for a level 1 MOSFET.
Instance "m:x1:u2:4": Length shorter than recommended for a level 1 MOSFET.
Instance "m:x1:u2:3": Length shorter than recommended for a level 1 MOSFET.
Instance "m:x1:u2:1": Length shorter than recommended for a level 1 MOSFET.
Instance "m:x1:u2:2:2": Length shorter than recommended for a level 1 MOSFET.
Instance "m:x1:u2:1:2": Length shorter than recommended for a level 1 MOSFET.
Instance "m:x1:u2:8": Length shorter than recommended for a level 1 MOSFET.
Instance "m:x1:u2:7": Length shorter than recommended for a level 1 MOSFET.
Instance "m:x1:u2:2:1": Length shorter than recommended for a level 1 MOSFET.
Instance "m:x1:u2:1:1": Length shorter than recommended for a level 1 MOSFET.
Instance "m:x3:u2:4": Length shorter than recommended for a level 1 MOSFET.
Instance "m:x3:u2:3": Length shorter than recommended for a level 1 MOSFET.
Instance "m:x3:u2:1": Length shorter than recommended for a level 1 MOSFET.
Instance "m:x3:u2:2:2": Length shorter than recommended for a level 1 MOSFET.
Instance "m:x3:u2:1:2": Length shorter than recommended for a level 1 MOSFET.
Instance "m:x3:u2:8": Length shorter than recommended for a level 1 MOSFET.
Instance "m:x3:u2:7": Length shorter than recommended for a level 1 MOSFET.
Instance "m:x3:u2:2:1": Length shorter than recommended for a level 1 MOSFET.
Instance "m:x3:u2:1:1": Length shorter than recommended for a level 1 MOSFET.
Instance "m:x2:u2:4": Length shorter than recommended for a level 1 MOSFET.
Instance "m:x2:u2:3": Length shorter than recommended for a level 1 MOSFET.
Instance "m:x2:u2:1": Length shorter than recommended for a level 1 MOSFET.
Instance "m:x2:u2:2:2": Length shorter than recommended for a level 1 MOSFET.
Instance "m:x2:u2:1:2": Length shorter than recommended for a level 1 MOSFET.
Instance "m:x2:u2:8": Length shorter than recommended for a level 1 MOSFET.
Instance "m:x2:u2:7": Length shorter than recommended for a level 1 MOSFET.
Instance "m:x2:u2:2:1": Length shorter than recommended for a level 1 MOSFET.
Instance "m:x2:u2:1:1": Length shorter than recommended for a level 1 MOSFET.
Direct Newton iteration failed to find .op point.  (Use ".option noopiter" to skip.)
Starting Gmin stepping
Gmin = 10
Gmin = 1.07374
Gmin = 0.115292
Gmin = 0.0123794
Gmin = 0.00132923
Gmin = 0.000142725
Gmin = 1.5325e-005
Gmin = 1.6455e-006
Gmin = 1.76685e-007
Gmin = 1.89714e-008
Gmin = 2.03704e-009
Gmin = 2.18725e-010
Gmin = 2.34854e-011
Gmin = 2.52173e-012
Gmin = 2.70769e-013
Gmin = 0
Gmin stepping succeeded in finding the operating point.

Ignoring empty pin current: Ix(1:1)
Ignoring empty pin current: Ix(1:2)
Ignoring empty pin current: Ix(1:3)
Ignoring empty pin current: Ix(1:4)
Ignoring empty pin current: Ix(2:1)
Ignoring empty pin current: Ix(2:2)
Ignoring empty pin current: Ix(2:3)
Ignoring empty pin current: Ix(2:4)
Ignoring empty pin current: Ix(u2:1)
Ignoring empty pin current: Ix(u2:2)
Ignoring empty pin current: Ix(u7:1)
Ignoring empty pin current: Ix(u7:3)
Ignoring empty pin current: Ix(u9:1)
Ignoring empty pin current: Ix(u9:2)
Ignoring empty pin current: Ix(u9:3)
Ignoring empty pin current: Ix(u8:1)
Ignoring empty pin current: Ix(u8:2)
Ignoring empty pin current: Ix(u8:3)
Ignoring empty pin current: Ix(u3:1)
Ignoring empty pin current: Ix(u3:2)
Ignoring empty pin current: Ix(u4:1)
Ignoring empty pin current: Ix(u4:2)
Ignoring empty pin current: Ix(u10:1)
Ignoring empty pin current: Ix(u10:2)
Ignoring empty pin current: Ix(1:1)
Ignoring empty pin current: Ix(1:2)
Ignoring empty pin current: Ix(1:3)
Ignoring empty pin current: Ix(1:4)
Ignoring empty pin current: Ix(2:1)
Ignoring empty pin current: Ix(2:2)
Ignoring empty pin current: Ix(2:3)
Ignoring empty pin current: Ix(2:4)
Ignoring empty pin current: Ix(u2:1)
Ignoring empty pin current: Ix(u2:2)
Ignoring empty pin current: Ix(u7:1)
Ignoring empty pin current: Ix(u7:3)
Ignoring empty pin current: Ix(u9:1)
Ignoring empty pin current: Ix(u9:2)
Ignoring empty pin current: Ix(u9:3)
Ignoring empty pin current: Ix(u8:1)
Ignoring empty pin current: Ix(u8:2)
Ignoring empty pin current: Ix(u8:3)
Ignoring empty pin current: Ix(u3:1)
Ignoring empty pin current: Ix(u3:2)
Ignoring empty pin current: Ix(u4:1)
Ignoring empty pin current: Ix(u4:2)
Ignoring empty pin current: Ix(u10:1)
Ignoring empty pin current: Ix(u10:2)
Heightened Def Con from 2e-005 to 2e-005

Date: Sun Dec 11 21:32:18 2016
Total elapsed time: 164.294 seconds.

tnom = 27
temp = 27
method = modified trap
totiter = 1507849
traniter = 1507467
tranpoints = 486512
accept = 344977
rejected = 141536
matrix size = 317
fillins = 334
solver = Alternate
Thread vector: 117.6/46.7[4] 34.7/12.1[4] 14.6/5.8[4] 5.3/8.6[1]  2592/500
Matrix Compiler1: 57.45 KB object code size  15.6/9.8/[7.9]
Matrix Compiler2: 44.51 KB object code size  8.9/8.2/[4.0]


