Circuit: * D:\Users\Dan\Documents\GitHub\ThesisWork\LTSpice\CSK_TS_MC_03.asc

WARNING: Less than two connections to node 5V.  This node is used by V4.
Early termination of direct N-R iteration.
Direct Newton iteration failed to find .op point.  (Use ".option noopiter" to skip.)
Starting Gmin stepping
Gmin = 10
Gmin = 1.07374
Gmin = 0.115292
Gmin = 0.0123794
Gmin = 0.00132923
Gmin = 0.000142725
Gmin = 1.5325e-005
Gmin = 1.6455e-006
Gmin = 1.76685e-007
Gmin = 1.89714e-008
Gmin = 2.03704e-009
Gmin = 2.18725e-010
Gmin = 2.34854e-011
Gmin = 2.52173e-012
Gmin = 2.70769e-013
Gmin = 2.90735e-014
Gmin = 3.12175e-015
Gmin = 0
Gmin stepping succeeded in finding the operating point.

Ignoring empty pin current: Ix(u2:1)
Ignoring empty pin current: Ix(u2:2)
Ignoring empty pin current: Ix(u2:3)
Ignoring empty pin current: Ix(u3:1)
Ignoring empty pin current: Ix(u3:2)
Ignoring empty pin current: Ix(u3:3)
Ignoring empty pin current: Ix(u4:1)
Ignoring empty pin current: Ix(u4:2)
Ignoring empty pin current: Ix(u9:1)
Ignoring empty pin current: Ix(u9:2)
Ignoring empty pin current: Ix(u10:1)
Ignoring empty pin current: Ix(u10:2)
Ignoring empty pin current: Ix(u11:1)
Ignoring empty pin current: Ix(u11:2)
Ignoring empty pin current: Ix(u14:1)
Ignoring empty pin current: Ix(u14:2)
Ignoring empty pin current: Ix(u15:1)
Ignoring empty pin current: Ix(u15:2)
Ignoring empty pin current: Ix(u16:1)
Ignoring empty pin current: Ix(u16:2)
Ignoring empty pin current: Ix(u20:1)
Ignoring empty pin current: Ix(u20:2)
Ignoring empty pin current: Ix(u21:1)
Ignoring empty pin current: Ix(u21:2)
Ignoring empty pin current: Ix(u22:1)
Ignoring empty pin current: Ix(u22:2)
Ignoring empty pin current: Ix(x1:vlog)
Ignoring empty pin current: Ix(x1:msg)
Ignoring empty pin current: Ix(x2:vlog)
Ignoring empty pin current: Ix(x2:msg)
Ignoring empty pin current: Ix(x3:vlog)
Ignoring empty pin current: Ix(x3:msg)
Ignoring empty pin current: Ix(x4:vlog)
Ignoring empty pin current: Ix(x4:msg)
Ignoring empty pin current: Ix(x5:vlog)
Ignoring empty pin current: Ix(x5:msg)
Ignoring empty pin current: Ix(x6:vlog)
Ignoring empty pin current: Ix(x6:msg)
Ignoring empty pin current: Ix(u2:1)
Ignoring empty pin current: Ix(u2:2)
Ignoring empty pin current: Ix(u2:3)
Ignoring empty pin current: Ix(u3:1)
Ignoring empty pin current: Ix(u3:2)
Ignoring empty pin current: Ix(u3:3)
Ignoring empty pin current: Ix(u4:1)
Ignoring empty pin current: Ix(u4:2)
Ignoring empty pin current: Ix(u9:1)
Ignoring empty pin current: Ix(u9:2)
Ignoring empty pin current: Ix(u10:1)
Ignoring empty pin current: Ix(u10:2)
Ignoring empty pin current: Ix(u11:1)
Ignoring empty pin current: Ix(u11:2)
Ignoring empty pin current: Ix(u14:1)
Ignoring empty pin current: Ix(u14:2)
Ignoring empty pin current: Ix(u15:1)
Ignoring empty pin current: Ix(u15:2)
Ignoring empty pin current: Ix(u16:1)
Ignoring empty pin current: Ix(u16:2)
Ignoring empty pin current: Ix(u20:1)
Ignoring empty pin current: Ix(u20:2)
Ignoring empty pin current: Ix(u21:1)
Ignoring empty pin current: Ix(u21:2)
Ignoring empty pin current: Ix(u22:1)
Ignoring empty pin current: Ix(u22:2)
Ignoring empty pin current: Ix(x1:vlog)
Ignoring empty pin current: Ix(x1:msg)
Ignoring empty pin current: Ix(x2:vlog)
Ignoring empty pin current: Ix(x2:msg)
Ignoring empty pin current: Ix(x3:vlog)
Ignoring empty pin current: Ix(x3:msg)
Ignoring empty pin current: Ix(x4:vlog)
Ignoring empty pin current: Ix(x4:msg)
Ignoring empty pin current: Ix(x5:vlog)
Ignoring empty pin current: Ix(x5:msg)
Ignoring empty pin current: Ix(x6:vlog)
Ignoring empty pin current: Ix(x6:msg)
Heightened Def Con from 0.00467827 to 0.00467827

Date: Sun Feb 12 23:33:00 2017
Total elapsed time: 37.134 seconds.

tnom = 27
temp = 27
method = modified trap
totiter = 506223
traniter = 505817
tranpoints = 109342
accept = 81971
rejected = 27372
matrix size = 192
fillins = 320
solver = Alternate
Thread vector: 96.7/51.8[4] 18.2/7.2[4] 13.4/6.8[4] 2.4/1.9[2]  2592/500
Matrix Compiler1: 35.52 KB object code size  8.5/5.7/[4.0]
Matrix Compiler2: 23.42 KB object code size  2.8/3.5/[1.5]


