Circuit: * D:\Users\Dan\Documents\GitHub\ThesisWork\LTSpice\CSK_TS_Ideal_06.asc

Instance "m:x6:u2:4": Length shorter than recommended for a level 1 MOSFET.
Instance "m:x6:u2:3": Length shorter than recommended for a level 1 MOSFET.
Instance "m:x6:u2:1": Length shorter than recommended for a level 1 MOSFET.
Instance "m:x6:u2:2:2": Length shorter than recommended for a level 1 MOSFET.
Instance "m:x6:u2:1:2": Length shorter than recommended for a level 1 MOSFET.
Instance "m:x6:u2:8": Length shorter than recommended for a level 1 MOSFET.
Instance "m:x6:u2:7": Length shorter than recommended for a level 1 MOSFET.
Instance "m:x6:u2:2:1": Length shorter than recommended for a level 1 MOSFET.
Instance "m:x6:u2:1:1": Length shorter than recommended for a level 1 MOSFET.
Instance "m:x5:u2:4": Length shorter than recommended for a level 1 MOSFET.
Instance "m:x5:u2:3": Length shorter than recommended for a level 1 MOSFET.
Instance "m:x5:u2:1": Length shorter than recommended for a level 1 MOSFET.
Instance "m:x5:u2:2:2": Length shorter than recommended for a level 1 MOSFET.
Instance "m:x5:u2:1:2": Length shorter than recommended for a level 1 MOSFET.
Instance "m:x5:u2:8": Length shorter than recommended for a level 1 MOSFET.
Instance "m:x5:u2:7": Length shorter than recommended for a level 1 MOSFET.
Instance "m:x5:u2:2:1": Length shorter than recommended for a level 1 MOSFET.
Instance "m:x5:u2:1:1": Length shorter than recommended for a level 1 MOSFET.
Instance "m:x4:u2:4": Length shorter than recommended for a level 1 MOSFET.
Instance "m:x4:u2:3": Length shorter than recommended for a level 1 MOSFET.
Instance "m:x4:u2:1": Length shorter than recommended for a level 1 MOSFET.
Instance "m:x4:u2:2:2": Length shorter than recommended for a level 1 MOSFET.
Instance "m:x4:u2:1:2": Length shorter than recommended for a level 1 MOSFET.
Instance "m:x4:u2:8": Length shorter than recommended for a level 1 MOSFET.
Instance "m:x4:u2:7": Length shorter than recommended for a level 1 MOSFET.
Instance "m:x4:u2:2:1": Length shorter than recommended for a level 1 MOSFET.
Instance "m:x4:u2:1:1": Length shorter than recommended for a level 1 MOSFET.
Instance "m:x1:u2:4": Length shorter than recommended for a level 1 MOSFET.
Instance "m:x1:u2:3": Length shorter than recommended for a level 1 MOSFET.
Instance "m:x1:u2:1": Length shorter than recommended for a level 1 MOSFET.
Instance "m:x1:u2:2:2": Length shorter than recommended for a level 1 MOSFET.
Instance "m:x1:u2:1:2": Length shorter than recommended for a level 1 MOSFET.
Instance "m:x1:u2:8": Length shorter than recommended for a level 1 MOSFET.
Instance "m:x1:u2:7": Length shorter than recommended for a level 1 MOSFET.
Instance "m:x1:u2:2:1": Length shorter than recommended for a level 1 MOSFET.
Instance "m:x1:u2:1:1": Length shorter than recommended for a level 1 MOSFET.
Instance "m:x3:u2:4": Length shorter than recommended for a level 1 MOSFET.
Instance "m:x3:u2:3": Length shorter than recommended for a level 1 MOSFET.
Instance "m:x3:u2:1": Length shorter than recommended for a level 1 MOSFET.
Instance "m:x3:u2:2:2": Length shorter than recommended for a level 1 MOSFET.
Instance "m:x3:u2:1:2": Length shorter than recommended for a level 1 MOSFET.
Instance "m:x3:u2:8": Length shorter than recommended for a level 1 MOSFET.
Instance "m:x3:u2:7": Length shorter than recommended for a level 1 MOSFET.
Instance "m:x3:u2:2:1": Length shorter than recommended for a level 1 MOSFET.
Instance "m:x3:u2:1:1": Length shorter than recommended for a level 1 MOSFET.
Instance "m:x2:u2:4": Length shorter than recommended for a level 1 MOSFET.
Instance "m:x2:u2:3": Length shorter than recommended for a level 1 MOSFET.
Instance "m:x2:u2:1": Length shorter than recommended for a level 1 MOSFET.
Instance "m:x2:u2:2:2": Length shorter than recommended for a level 1 MOSFET.
Instance "m:x2:u2:1:2": Length shorter than recommended for a level 1 MOSFET.
Instance "m:x2:u2:8": Length shorter than recommended for a level 1 MOSFET.
Instance "m:x2:u2:7": Length shorter than recommended for a level 1 MOSFET.
Instance "m:x2:u2:2:1": Length shorter than recommended for a level 1 MOSFET.
Instance "m:x2:u2:1:1": Length shorter than recommended for a level 1 MOSFET.
Direct Newton iteration failed to find .op point.  (Use ".option noopiter" to skip.)
Starting Gmin stepping
Gmin = 10
Gmin = 1.07374
Gmin = 0.115292
Gmin = 0.0123794
Gmin = 0.00132923
Gmin = 0.000142725
Gmin = 1.5325e-005
Gmin = 1.6455e-006
Gmin = 1.76685e-007
Gmin = 1.89714e-008
Gmin = 2.03704e-009
Gmin = 2.18725e-010
Gmin = 2.34854e-011
Gmin = 2.52173e-012
Gmin = 2.70769e-013
Gmin = 0
Gmin stepping succeeded in finding the operating point.

Ignoring empty pin current: Ix(1:1)
Ignoring empty pin current: Ix(1:2)
Ignoring empty pin current: Ix(1:3)
Ignoring empty pin current: Ix(1:4)
Ignoring empty pin current: Ix(2:1)
Ignoring empty pin current: Ix(2:2)
Ignoring empty pin current: Ix(2:3)
Ignoring empty pin current: Ix(2:4)
Ignoring empty pin current: Ix(u2:1)
Ignoring empty pin current: Ix(u2:2)
Ignoring empty pin current: Ix(u7:1)
Ignoring empty pin current: Ix(u7:2)
Ignoring empty pin current: Ix(u7:3)
Ignoring empty pin current: Ix(u9:1)
Ignoring empty pin current: Ix(u9:2)
Ignoring empty pin current: Ix(u9:3)
Ignoring empty pin current: Ix(u8:1)
Ignoring empty pin current: Ix(u8:2)
Ignoring empty pin current: Ix(u8:3)
Ignoring empty pin current: Ix(u3:1)
Ignoring empty pin current: Ix(u3:2)
Ignoring empty pin current: Ix(u4:1)
Ignoring empty pin current: Ix(u4:2)
Ignoring empty pin current: Ix(u6:1)
Ignoring empty pin current: Ix(u6:2)
Ignoring empty pin current: Ix(u10:1)
Ignoring empty pin current: Ix(u10:2)
Ignoring empty pin current: Ix(u11:1)
Ignoring empty pin current: Ix(u11:2)
Ignoring empty pin current: Ix(u14:1)
Ignoring empty pin current: Ix(u14:2)
Ignoring empty pin current: Ix(u15:1)
Ignoring empty pin current: Ix(u15:2)
Ignoring empty pin current: Ix(u16:1)
Ignoring empty pin current: Ix(u16:2)
Ignoring empty pin current: Ix(u17:1)
Ignoring empty pin current: Ix(u17:2)
Ignoring empty pin current: Ix(u18:1)
Ignoring empty pin current: Ix(u18:2)
Ignoring empty pin current: Ix(u19:1)
Ignoring empty pin current: Ix(u19:2)
Ignoring empty pin current: Ix(u20:1)
Ignoring empty pin current: Ix(u20:2)
Ignoring empty pin current: Ix(u21:1)
Ignoring empty pin current: Ix(u21:2)
Ignoring empty pin current: Ix(u22:1)
Ignoring empty pin current: Ix(u22:2)
Ignoring empty pin current: Ix(1:1)
Ignoring empty pin current: Ix(1:2)
Ignoring empty pin current: Ix(1:3)
Ignoring empty pin current: Ix(1:4)
Ignoring empty pin current: Ix(2:1)
Ignoring empty pin current: Ix(2:2)
Ignoring empty pin current: Ix(2:3)
Ignoring empty pin current: Ix(2:4)
Ignoring empty pin current: Ix(u2:1)
Ignoring empty pin current: Ix(u2:2)
Ignoring empty pin current: Ix(u7:1)
Ignoring empty pin current: Ix(u7:2)
Ignoring empty pin current: Ix(u7:3)
Ignoring empty pin current: Ix(u9:1)
Ignoring empty pin current: Ix(u9:2)
Ignoring empty pin current: Ix(u9:3)
Ignoring empty pin current: Ix(u8:1)
Ignoring empty pin current: Ix(u8:2)
Ignoring empty pin current: Ix(u8:3)
Ignoring empty pin current: Ix(u3:1)
Ignoring empty pin current: Ix(u3:2)
Ignoring empty pin current: Ix(u4:1)
Ignoring empty pin current: Ix(u4:2)
Ignoring empty pin current: Ix(u6:1)
Ignoring empty pin current: Ix(u6:2)
Ignoring empty pin current: Ix(u10:1)
Ignoring empty pin current: Ix(u10:2)
Ignoring empty pin current: Ix(u11:1)
Ignoring empty pin current: Ix(u11:2)
Ignoring empty pin current: Ix(u14:1)
Ignoring empty pin current: Ix(u14:2)
Ignoring empty pin current: Ix(u15:1)
Ignoring empty pin current: Ix(u15:2)
Ignoring empty pin current: Ix(u16:1)
Ignoring empty pin current: Ix(u16:2)
Ignoring empty pin current: Ix(u17:1)
Ignoring empty pin current: Ix(u17:2)
Ignoring empty pin current: Ix(u18:1)
Ignoring empty pin current: Ix(u18:2)
Ignoring empty pin current: Ix(u19:1)
Ignoring empty pin current: Ix(u19:2)
Ignoring empty pin current: Ix(u20:1)
Ignoring empty pin current: Ix(u20:2)
Ignoring empty pin current: Ix(u21:1)
Ignoring empty pin current: Ix(u21:2)
Ignoring empty pin current: Ix(u22:1)
Ignoring empty pin current: Ix(u22:2)

Date: Wed Dec 07 21:49:42 2016
Total elapsed time: 75.279 seconds.

tnom = 27
temp = 27
method = modified trap
totiter = 602319
traniter = 601937
tranpoints = 171254
accept = 123982
rejected = 47272
matrix size = 339
fillins = 436
solver = Alternate
Thread vector: 122.9/47.1[4] 33.0/12.5[4] 13.4/8.7[4] 5.4/3.4[2]  2592/500
Matrix Compiler1: 66.36 KB object code size  17.0/10.8/[7.3]
Matrix Compiler2: 48.25 KB object code size  9.2/8.5/[5.0]


