Circuit: * D:\Users\Dan\Documents\GitHub\ThesisWork\LTSpice\CSK_TS_Ideal.asc

WARNING: Less than two connections to node NC_01.  This node is used by R22.
WARNING: Less than two connections to node NC_02.  This node is used by R23.
Instance "m:x3:u2:4": Length shorter than recommended for a level 1 MOSFET.
Instance "m:x3:u2:3": Length shorter than recommended for a level 1 MOSFET.
Instance "m:x3:u2:1": Length shorter than recommended for a level 1 MOSFET.
Instance "m:x3:u2:2:2": Length shorter than recommended for a level 1 MOSFET.
Instance "m:x3:u2:1:2": Length shorter than recommended for a level 1 MOSFET.
Instance "m:x3:u2:8": Length shorter than recommended for a level 1 MOSFET.
Instance "m:x3:u2:7": Length shorter than recommended for a level 1 MOSFET.
Instance "m:x3:u2:2:1": Length shorter than recommended for a level 1 MOSFET.
Instance "m:x3:u2:1:1": Length shorter than recommended for a level 1 MOSFET.
Instance "m:x2:u2:4": Length shorter than recommended for a level 1 MOSFET.
Instance "m:x2:u2:3": Length shorter than recommended for a level 1 MOSFET.
Instance "m:x2:u2:1": Length shorter than recommended for a level 1 MOSFET.
Instance "m:x2:u2:2:2": Length shorter than recommended for a level 1 MOSFET.
Instance "m:x2:u2:1:2": Length shorter than recommended for a level 1 MOSFET.
Instance "m:x2:u2:8": Length shorter than recommended for a level 1 MOSFET.
Instance "m:x2:u2:7": Length shorter than recommended for a level 1 MOSFET.
Instance "m:x2:u2:2:1": Length shorter than recommended for a level 1 MOSFET.
Instance "m:x2:u2:1:1": Length shorter than recommended for a level 1 MOSFET.
Instance "m:x1:u2:4": Length shorter than recommended for a level 1 MOSFET.
Instance "m:x1:u2:3": Length shorter than recommended for a level 1 MOSFET.
Instance "m:x1:u2:1": Length shorter than recommended for a level 1 MOSFET.
Instance "m:x1:u2:2:2": Length shorter than recommended for a level 1 MOSFET.
Instance "m:x1:u2:1:2": Length shorter than recommended for a level 1 MOSFET.
Instance "m:x1:u2:8": Length shorter than recommended for a level 1 MOSFET.
Instance "m:x1:u2:7": Length shorter than recommended for a level 1 MOSFET.
Instance "m:x1:u2:2:1": Length shorter than recommended for a level 1 MOSFET.
Instance "m:x1:u2:1:1": Length shorter than recommended for a level 1 MOSFET.
Direct Newton iteration failed to find .op point.  (Use ".option noopiter" to skip.)
Starting Gmin stepping
Gmin = 10
Gmin = 1.07374
Gmin = 0.115292
Gmin = 0.0123794
Gmin = 0.00132923
Gmin = 0.000142725
Gmin = 1.5325e-005
Gmin = 1.6455e-006
Gmin = 1.76685e-007
Gmin = 1.89714e-008
Gmin = 2.03704e-009
Gmin = 2.18725e-010
Gmin = 2.34854e-011
Gmin = 2.52173e-012
Gmin = 2.70769e-013
Gmin = 0
Gmin stepping succeeded in finding the operating point.

Ignoring empty pin current: Ix(1:1)
Ignoring empty pin current: Ix(1:2)
Ignoring empty pin current: Ix(1:3)
Ignoring empty pin current: Ix(1:4)
Ignoring empty pin current: Ix(2:1)
Ignoring empty pin current: Ix(2:2)
Ignoring empty pin current: Ix(2:3)
Ignoring empty pin current: Ix(2:4)
Ignoring empty pin current: Ix(u3:1)
Ignoring empty pin current: Ix(u3:2)
Ignoring empty pin current: Ix(u4:1)
Ignoring empty pin current: Ix(u4:2)
Ignoring empty pin current: Ix(u5:1)
Ignoring empty pin current: Ix(u5:2)
Ignoring empty pin current: Ix(u6:1)
Ignoring empty pin current: Ix(u6:2)
Ignoring empty pin current: Ix(u7:1)
Ignoring empty pin current: Ix(u7:2)
Ignoring empty pin current: Ix(u7:3)
Ignoring empty pin current: Ix(u9:1)
Ignoring empty pin current: Ix(u9:2)
Ignoring empty pin current: Ix(u9:3)
Ignoring empty pin current: Ix(u8:1)
Ignoring empty pin current: Ix(u8:2)
Ignoring empty pin current: Ix(u8:3)
Ignoring empty pin current: Ix(u14:1)
Ignoring empty pin current: Ix(u14:2)
Ignoring empty pin current: Ix(u15:1)
Ignoring empty pin current: Ix(u15:2)
Ignoring empty pin current: Ix(u10:1)
Ignoring empty pin current: Ix(u10:2)
Ignoring empty pin current: Ix(1:1)
Ignoring empty pin current: Ix(1:2)
Ignoring empty pin current: Ix(1:3)
Ignoring empty pin current: Ix(1:4)
Ignoring empty pin current: Ix(2:1)
Ignoring empty pin current: Ix(2:2)
Ignoring empty pin current: Ix(2:3)
Ignoring empty pin current: Ix(2:4)
Ignoring empty pin current: Ix(u3:1)
Ignoring empty pin current: Ix(u3:2)
Ignoring empty pin current: Ix(u4:1)
Ignoring empty pin current: Ix(u4:2)
Ignoring empty pin current: Ix(u5:1)
Ignoring empty pin current: Ix(u5:2)
Ignoring empty pin current: Ix(u6:1)
Ignoring empty pin current: Ix(u6:2)
Ignoring empty pin current: Ix(u7:1)
Ignoring empty pin current: Ix(u7:2)
Ignoring empty pin current: Ix(u7:3)
Ignoring empty pin current: Ix(u9:1)
Ignoring empty pin current: Ix(u9:2)
Ignoring empty pin current: Ix(u9:3)
Ignoring empty pin current: Ix(u8:1)
Ignoring empty pin current: Ix(u8:2)
Ignoring empty pin current: Ix(u8:3)
Ignoring empty pin current: Ix(u14:1)
Ignoring empty pin current: Ix(u14:2)
Ignoring empty pin current: Ix(u15:1)
Ignoring empty pin current: Ix(u15:2)
Ignoring empty pin current: Ix(u10:1)
Ignoring empty pin current: Ix(u10:2)
Heightened Def Con from 2e-005 +++to 2e-005
Heightened Def Con from 5.97463e-005 to 5.97463e-005
Heightened Def Con from 5.97463e-005 to 5.97463e-005
Heightened Def Con from 6.40784e-005 to 6.40784e-005
Heightened Def Con from 7.21036e-005 to 7.21036e-005
Heightened Def Con from 7.42453e-005 +++++++to 7.42453e-005
Heightened Def Con from 7.42453e-005 +++++++to 7.42453e-005
Heightened Def Con from 7.69486e-005 +++++++to 7.69486e-005
Heightened Def Con from 7.69486e-005 to 7.69486e-005
Heightened Def Con from 8.39429e-005 to 8.39429e-005
Heightened Def Con from 9.15143e-005 +++++++++to 9.15143e-005
Heightened Def Con from 9.15143e-005 +++++++++to 9.15143e-005
Heightened Def Con from 9.8472e-005 +++++++++++to 9.8472e-005
Heightened Def Con from 9.8472e-005 to 9.84721e-005
Heightened Def Con from 0.000115906 +++++++++++++to 0.000115906
Heightened Def Con from 0.000115906 to 0.000115906
Heightened Def Con from 0.000117522 ++++++++++++++to 0.000117522
Heightened Def Con from 0.000119686 ++++++++++++++to 0.000119686
Heightened Def Con from 0.000119686 ++++++++++++++to 0.000119686
Heightened Def Con from 0.000127289 ++++++++++++++to 0.000127289
Heightened Def Con from 0.000127289 ++++++++++++++++to 0.000127289
Heightened Def Con from 0.000128927 to 0.000128927
Heightened Def Con from 0.000140778 to 0.000140778
Heightened Def Con from 0.000145737 to 0.000145737
Heightened Def Con from 0.000159859 to 0.00015986
Heightened Def Con from 0.000160323 to 0.000160323
Heightened Def Con from 0.000160323 to 0.000160323
Heightened Def Con from 0.000166838 to 0.000166838
Heightened Def Con from 0.000168014 to 0.000168014
Heightened Def Con from 0.00016854 to 0.00016854
Heightened Def Con from 0.000170096 to 0.000170096
Heightened Def Con from 0.000173353 to 0.000173353
Heightened Def Con from 0.000176146 to 0.000176146
Heightened Def Con from 0.000177785 to 0.000177785
Heightened Def Con from 0.000181042 to 0.000181042
Heightened Def Con from 0.000183124 to 0.000183124
Heightened Def Con from 0.000187556 to 0.000187556
Heightened Def Con from 0.000189173 to 0.000189173
Heightened Def Con from 0.000191339 to 0.000191339
Heightened Def Con from 0.000194069 to 0.000194069
Heightened Def Con from 0.000194595 to 0.000194595
Heightened Def Con from 0.000197325 to 0.000197325
Heightened Def Con from 0.000203838 to 0.000203838
Heightened Def Con from 0.000205455 +++++++++++++++++++++to 0.000205455
Heightened Def Con from 0.000207621 +++++++++++++++++++++++to 0.000207621
Heightened Def Con from 0.000209175 to 0.000209175
Heightened Def Con from 0.000211968 to 0.000211968
Heightened Def Con from 0.000213607 to 0.000213607
Heightened Def Con from 0.000215688 to 0.000215688
Heightened Def Con from 0.00021739 to 0.00021739
Heightened Def Con from 0.000218481 +++++++++++++++++++++to 0.000218481
Heightened Def Con from 0.00022012 to 0.00022012
Heightened Def Con from 0.000220646 to 0.000220646
Heightened Def Con from 0.000221737 +++++++++++++++++++++to 0.000221737
Heightened Def Con from 0.000223376 +++++++++++++++++++++++to 0.000223376
Heightened Def Con from 0.000223903 +++++++++++++++++++++++to 0.000223903
Heightened Def Con from 0.000225457 to 0.000225457
Heightened Def Con from 0.000226633 +++++++++++++++++++++++to 0.000226633
Heightened Def Con from 0.000227159 to 0.000227159
Heightened Def Con from 0.00022825 +++++++++++++++++++++to 0.00022825
Heightened Def Con from 0.000228714 to 0.000228714
Heightened Def Con from 0.000229889 +++++++++++++++++++++++to 0.000229889
Heightened Def Con from 0.000230415 +++++++++++++++++++++++to 0.000230415

Date: Mon Nov 14 23:31:02 2016
Total elapsed time: 30.493 seconds.

tnom = 27
temp = 27
method = trap
totiter = 401367
traniter = 400954
tranpoints = 84273
accept = 58264
rejected = 26432
matrix size = 329
fillins = 221
solver = Alternate
Thread vector: 76.1/33.4[4] 21.2/17.0[4] 11.3/8.4[4] 3.7/2.9[2]  2592/500
Matrix Compiler1: 36.68 KB object code size  10.9/6.3/[3.9]
Matrix Compiler2: 33.54 KB object code size  5.7/6.4/[3.5]


