Circuit: * D:\Users\Dan\Documents\GitHub\ThesisWork\LTSpice\CSK_Ideal.asc

Instance "m:x2:u1:4": Length shorter than recommended for a level 1 MOSFET.
Instance "m:x2:u1:3": Length shorter than recommended for a level 1 MOSFET.
Instance "m:x2:u1:1": Length shorter than recommended for a level 1 MOSFET.
Instance "m:x2:u1:2:2": Length shorter than recommended for a level 1 MOSFET.
Instance "m:x2:u1:1:2": Length shorter than recommended for a level 1 MOSFET.
Instance "m:x2:u1:8": Length shorter than recommended for a level 1 MOSFET.
Instance "m:x2:u1:7": Length shorter than recommended for a level 1 MOSFET.
Instance "m:x2:u1:2:1": Length shorter than recommended for a level 1 MOSFET.
Instance "m:x2:u1:1:1": Length shorter than recommended for a level 1 MOSFET.
Instance "m:x1:u1:4": Length shorter than recommended for a level 1 MOSFET.
Instance "m:x1:u1:3": Length shorter than recommended for a level 1 MOSFET.
Instance "m:x1:u1:1": Length shorter than recommended for a level 1 MOSFET.
Instance "m:x1:u1:2:2": Length shorter than recommended for a level 1 MOSFET.
Instance "m:x1:u1:1:2": Length shorter than recommended for a level 1 MOSFET.
Instance "m:x1:u1:8": Length shorter than recommended for a level 1 MOSFET.
Instance "m:x1:u1:7": Length shorter than recommended for a level 1 MOSFET.
Instance "m:x1:u1:2:1": Length shorter than recommended for a level 1 MOSFET.
Instance "m:x1:u1:1:1": Length shorter than recommended for a level 1 MOSFET.
Direct Newton iteration for .op point succeeded.
Ignoring empty pin current: Ix(1:1)
Ignoring empty pin current: Ix(1:2)
Ignoring empty pin current: Ix(1:3)
Ignoring empty pin current: Ix(1:4)
Ignoring empty pin current: Ix(2:1)
Ignoring empty pin current: Ix(2:2)
Ignoring empty pin current: Ix(2:3)
Ignoring empty pin current: Ix(2:4)
Ignoring empty pin current: Ix(u2:1)
Ignoring empty pin current: Ix(u2:2)
Ignoring empty pin current: Ix(u2:3)
Ignoring empty pin current: Ix(u4:1)
Ignoring empty pin current: Ix(u4:2)
Ignoring empty pin current: Ix(u4:3)
Ignoring empty pin current: Ix(u3:1)
Ignoring empty pin current: Ix(u3:2)
Ignoring empty pin current: Ix(u3:3)
Ignoring empty pin current: Ix(u11:1)
Ignoring empty pin current: Ix(u11:2)
Ignoring empty pin current: Ix(u12:1)
Ignoring empty pin current: Ix(u12:2)
Ignoring empty pin current: Ix(u13:1)
Ignoring empty pin current: Ix(u13:2)
Ignoring empty pin current: Ix(u14:1)
Ignoring empty pin current: Ix(u14:2)
Ignoring empty pin current: Ix(u15:1)
Ignoring empty pin current: Ix(u15:2)
Ignoring empty pin current: Ix(x1:gnd)
Ignoring empty pin current: Ix(x1:msg)
Ignoring empty pin current: Ix(x2:gnd)
Ignoring empty pin current: Ix(x2:msg)
Ignoring empty pin current: Ix(1:1)
Ignoring empty pin current: Ix(1:2)
Ignoring empty pin current: Ix(1:3)
Ignoring empty pin current: Ix(1:4)
Ignoring empty pin current: Ix(2:1)
Ignoring empty pin current: Ix(2:2)
Ignoring empty pin current: Ix(2:3)
Ignoring empty pin current: Ix(2:4)
Ignoring empty pin current: Ix(u2:1)
Ignoring empty pin current: Ix(u2:2)
Ignoring empty pin current: Ix(u2:3)
Ignoring empty pin current: Ix(u4:1)
Ignoring empty pin current: Ix(u4:2)
Ignoring empty pin current: Ix(u4:3)
Ignoring empty pin current: Ix(u3:1)
Ignoring empty pin current: Ix(u3:2)
Ignoring empty pin current: Ix(u3:3)
Ignoring empty pin current: Ix(u11:1)
Ignoring empty pin current: Ix(u11:2)
Ignoring empty pin current: Ix(u12:1)
Ignoring empty pin current: Ix(u12:2)
Ignoring empty pin current: Ix(u13:1)
Ignoring empty pin current: Ix(u13:2)
Ignoring empty pin current: Ix(u14:1)
Ignoring empty pin current: Ix(u14:2)
Ignoring empty pin current: Ix(u15:1)
Ignoring empty pin current: Ix(u15:2)
Ignoring empty pin current: Ix(x1:gnd)
Ignoring empty pin current: Ix(x1:msg)
Ignoring empty pin current: Ix(x2:gnd)
Ignoring empty pin current: Ix(x2:msg)

Date: Fri Dec 09 10:22:15 2016
Total elapsed time: 4.622 seconds.

tnom = 27
temp = 27
method = modified trap
totiter = 127654
traniter = 127626
tranpoints = 31675
accept = 23769
rejected = 7906
matrix size = 132
fillins = 128
solver = Alternate
Thread vector: 65.8/25.5[4] 14.5/5.1[4] 9.7/4.7[4] 3.0/4.9[1]  2592/500
Matrix Compiler1: 20.80 KB object code size  7.4/4.9/[3.2]
Matrix Compiler2: 16.66 KB object code size  3.5/3.6/[2.6]


