Circuit: * D:\Users\Dan\Documents\GitHub\ThesisWork\LTSpice\Draft8.asc

WARNING: Less than two connections to node OUT.  This node is used by B1.
.OP point found by inspection.

Date: Fri Dec 16 21:51:13 2016
Total elapsed time: 0.032 seconds.

tnom = 27
temp = 27
method = modified trap
totiter = 3310
traniter = 3310
tranpoints = 1656
accept = 1586
rejected = 70
matrix size = 8
fillins = 0
solver = Alternate
Matrix Compiler1: 176 bytes object code size  0.2/0.1/[0.1]
Matrix Compiler2: 396 bytes object code size  0.1/0.1/[0.0]


