Circuit: * D:\Users\Dan\Documents\GitHub\ThesisWork\LTSpice\Draft2.asc

Instance "m:x1:u2:4": Length shorter than recommended for a level 1 MOSFET.
Instance "m:x1:u2:3": Length shorter than recommended for a level 1 MOSFET.
Instance "m:x1:u2:1": Length shorter than recommended for a level 1 MOSFET.
Instance "m:x1:u2:2:2": Length shorter than recommended for a level 1 MOSFET.
Instance "m:x1:u2:1:2": Length shorter than recommended for a level 1 MOSFET.
Instance "m:x1:u2:8": Length shorter than recommended for a level 1 MOSFET.
Instance "m:x1:u2:7": Length shorter than recommended for a level 1 MOSFET.
Instance "m:x1:u2:2:1": Length shorter than recommended for a level 1 MOSFET.
Instance "m:x1:u2:1:1": Length shorter than recommended for a level 1 MOSFET.
Direct Newton iteration failed to find .op point.  (Use ".option noopiter" to skip.)
Starting Gmin stepping
Increasing initial diagonal Gmin to 100
Increasing initial diagonal Gmin to 1000
Gmin = 1000
Gmin = 107.374
Gmin = 11.5292
Gmin = 1.23794
Gmin = 0.132923
Gmin = 0.0142725
Gmin = 0.0015325
Gmin = 0.00016455
Gmin = 1.76685e-005
Gmin = 1.89714e-006
Gmin = 2.03704e-007
Gmin = 2.18725e-008
Gmin = 2.34854e-009
Gmin = 2.52173e-010
Gmin = 2.70769e-011
Gmin = 2.90735e-012
Gmin = 3.12175e-013
Gmin = 0
Gmin stepping succeeded in finding the operating point.

Ignoring empty pin current: Ix(1:1)
Ignoring empty pin current: Ix(1:2)
Ignoring empty pin current: Ix(1:3)
Ignoring empty pin current: Ix(1:4)
Ignoring empty pin current: Ix(2:1)
Ignoring empty pin current: Ix(2:2)
Ignoring empty pin current: Ix(2:3)
Ignoring empty pin current: Ix(2:4)
Ignoring empty pin current: Ix(u7:1)
Ignoring empty pin current: Ix(u7:2)
Ignoring empty pin current: Ix(u7:3)
Ignoring empty pin current: Ix(u9:1)
Ignoring empty pin current: Ix(u9:2)
Ignoring empty pin current: Ix(u9:3)
Ignoring empty pin current: Ix(u8:1)
Ignoring empty pin current: Ix(u8:2)
Ignoring empty pin current: Ix(u8:3)
Ignoring empty pin current: Ix(1:1)
Ignoring empty pin current: Ix(1:2)
Ignoring empty pin current: Ix(1:3)
Ignoring empty pin current: Ix(1:4)
Ignoring empty pin current: Ix(2:1)
Ignoring empty pin current: Ix(2:2)
Ignoring empty pin current: Ix(2:3)
Ignoring empty pin current: Ix(2:4)
Ignoring empty pin current: Ix(u7:1)
Ignoring empty pin current: Ix(u7:2)
Ignoring empty pin current: Ix(u7:3)
Ignoring empty pin current: Ix(u9:1)
Ignoring empty pin current: Ix(u9:2)
Ignoring empty pin current: Ix(u9:3)
Ignoring empty pin current: Ix(u8:1)
Ignoring empty pin current: Ix(u8:2)
Ignoring empty pin current: Ix(u8:3)

Date: Mon Nov 14 22:31:07 2016
Total elapsed time: 0.345 seconds.

tnom = 27
temp = 27
method = modified trap
totiter = 6586
traniter = 5616
tranpoints = 2289
accept = 1980
rejected = 309
matrix size = 101
fillins = 46
solver = Alternate
Thread vector: 38.9/22.0[2] 6.3/3.4[2] 2.5/1.7[2] 1.7/1.7[2]  2592/500
Matrix Compiler1: 8.87 KB object code size  2.1/1.8/[1.0]
Matrix Compiler2: off  [1.5]/2.9/1.6


