Circuit: *

Direct Newton iteration for .op point succeeded.

Date: Tue Nov 15 18:21:15 2016
Total elapsed time: 0.319 seconds.

tnom = 27
temp = 27
method = modified trap
totiter = 4928
traniter = 4925
tranpoints = 2459
accept = 2260
rejected = 199
matrix size = 5
fillins = 0
solver = Alternate
Matrix Compiler1: 108 object code size  0.2/0.2/[0.0]
Matrix Compiler2:      22 opcodes

