Circuit: * D:\Users\Dan\Documents\GitHub\ThesisWork\LTSpice\LamBlockTest.asc

Instance "m:u2:4": Length shorter than recommended for a level 1 MOSFET.
Instance "m:u2:3": Length shorter than recommended for a level 1 MOSFET.
Instance "m:u2:1": Length shorter than recommended for a level 1 MOSFET.
Instance "m:u2:2:2": Length shorter than recommended for a level 1 MOSFET.
Instance "m:u2:1:2": Length shorter than recommended for a level 1 MOSFET.
Instance "m:u2:8": Length shorter than recommended for a level 1 MOSFET.
Instance "m:u2:7": Length shorter than recommended for a level 1 MOSFET.
Instance "m:u2:2:1": Length shorter than recommended for a level 1 MOSFET.
Instance "m:u2:1:1": Length shorter than recommended for a level 1 MOSFET.
Direct Newton iteration failed to find .op point.  (Use ".option noopiter" to skip.)
Starting Gmin stepping
Increasing initial diagonal Gmin to 100
Increasing initial diagonal Gmin to 1000
Gmin = 1000
Gmin = 107.374
Gmin = 11.5292
Gmin = 1.23794
Gmin = 0.132923
Gmin = 0.0142725
Gmin = 0.0015325
Gmin = 0.00016455
Gmin = 1.76685e-005
Gmin = 1.89714e-006
Gmin = 2.03704e-007
Gmin = 2.18725e-008
Gmin = 2.34854e-009
Gmin = 2.52173e-010
Gmin = 2.70769e-011
Gmin = 2.90735e-012
Gmin = 3.12175e-013
Gmin = 0
Gmin stepping succeeded in finding the operating point.

Ignoring empty pin current: Ix(1:1)
Ignoring empty pin current: Ix(1:2)
Ignoring empty pin current: Ix(1:3)
Ignoring empty pin current: Ix(1:4)
Ignoring empty pin current: Ix(2:1)
Ignoring empty pin current: Ix(2:2)
Ignoring empty pin current: Ix(2:3)
Ignoring empty pin current: Ix(2:4)
Ignoring empty pin current: Ix(u2:2)
Ignoring empty pin current: Ix(u3:1)
Ignoring empty pin current: Ix(u3:2)
Ignoring empty pin current: Ix(u4:1)
Ignoring empty pin current: Ix(u4:2)
Ignoring empty pin current: Ix(u5:1)
Ignoring empty pin current: Ix(u5:2)
Ignoring empty pin current: Ix(1:1)
Ignoring empty pin current: Ix(1:2)
Ignoring empty pin current: Ix(1:3)
Ignoring empty pin current: Ix(1:4)
Ignoring empty pin current: Ix(2:1)
Ignoring empty pin current: Ix(2:2)
Ignoring empty pin current: Ix(2:3)
Ignoring empty pin current: Ix(2:4)
Ignoring empty pin current: Ix(u2:2)
Ignoring empty pin current: Ix(u3:1)
Ignoring empty pin current: Ix(u3:2)
Ignoring empty pin current: Ix(u4:1)
Ignoring empty pin current: Ix(u4:2)
Ignoring empty pin current: Ix(u5:1)
Ignoring empty pin current: Ix(u5:2)

Date: Thu Dec 15 20:58:37 2016
Total elapsed time: 0.318 seconds.

tnom = 27
temp = 27
method = modified trap
totiter = 4406
traniter = 3489
tranpoints = 1488
accept = 1369
rejected = 119
matrix size = 46
fillins = 35
solver = Alternate
Matrix Compiler1: 7.19 KB object code size  1.7/3.1/[0.8]
Matrix Compiler2: 6.25 KB object code size  1.6/1.9/[1.3]


