Circuit: * D:\Users\Dan\Documents\GitHub\ThesisWork\LTSpice\MAX319test.asc

WARNING: Less than two connections to node N011.  This node is used by V5.
Instance "m:u8:_max319_inv2_m2": Length shorter than recommended for a level 1 MOSFET.
Instance "m:u8:_max319_inv2_m2": Width narrower than recommended for a level 1 MOSFET.
Instance "m:u8:_max319_inv1_m2": Length shorter than recommended for a level 1 MOSFET.
Instance "m:u8:_max319_inv1_m2": Width narrower than recommended for a level 1 MOSFET.
Instance "m:u8:_max319_inv2_m1": Length shorter than recommended for a level 1 MOSFET.
Instance "m:u8:_max319_inv2_m1": Width narrower than recommended for a level 1 MOSFET.
Instance "m:u8:_max319_inv1_m1": Length shorter than recommended for a level 1 MOSFET.
Instance "m:u8:_max319_inv1_m1": Width narrower than recommended for a level 1 MOSFET.
Instance "m:u8:_max319_m15": Length shorter than recommended for a level 1 MOSFET.
Instance "m:u8:_max319_m15": Width narrower than recommended for a level 1 MOSFET.
Instance "m:u8:_max319_m13": Length shorter than recommended for a level 1 MOSFET.
Instance "m:u8:_max319_m13": Width narrower than recommended for a level 1 MOSFET.
Instance "m:u8:_max319_m14": Length shorter than recommended for a level 1 MOSFET.
Instance "m:u8:_max319_m14": Width narrower than recommended for a level 1 MOSFET.
Instance "m:u8:_max319_m12": Length shorter than recommended for a level 1 MOSFET.
Instance "m:u8:_max319_m12": Width narrower than recommended for a level 1 MOSFET.
Instance "m:u8:_max319_m2": Length shorter than recommended for a level 1 MOSFET.
Instance "m:u8:_max319_m1": Length shorter than recommended for a level 1 MOSFET.
Direct Newton iteration failed to find .op point.  (Use ".option noopiter" to skip.)
Starting Gmin stepping
Increasing initial diagonal Gmin to 100
Increasing initial diagonal Gmin to 1000
Gmin = 1000
Gmin = 107.374
Gmin = 11.5292
Gmin = 1.23794
Gmin = 0.132923
Gmin = 0.0142725
Gmin = 0.0015325
Gmin = 0.00016455
Gmin = 1.76685e-005
Gmin = 1.89714e-006
Gmin = 2.03704e-007
Gmin = 2.18725e-008
Gmin = 2.34854e-009
Gmin = 2.52173e-010
Gmin = 2.70769e-011
Gmin = 2.90735e-012
Gmin = 3.12175e-013
Gmin = 0
Gmin stepping succeeded in finding the operating point.

Ignoring empty pin current: Ix(u2:1)
Ignoring empty pin current: Ix(u2:2)
Ignoring empty pin current: Ix(u3:1)
Ignoring empty pin current: Ix(u3:2)
Ignoring empty pin current: Ix(u2:1)
Ignoring empty pin current: Ix(u2:2)
Ignoring empty pin current: Ix(u3:1)
Ignoring empty pin current: Ix(u3:2)
Heightened Def Con from 0.00050037 to 0.000500371
Heightened Def Con from 0.00100018 to 0.00100018
Heightened Def Con from 0.0010002 to 0.0010002
Heightened Def Con from 0.00150037 to 0.00150037
Heightened Def Con from 0.00150039 to 0.0015004

Date: Thu Dec 15 21:51:38 2016
Total elapsed time: 0.365 seconds.

tnom = 27
temp = 27
method = modified trap
totiter = 8824
traniter = 7714
tranpoints = 2669
accept = 2302
rejected = 372
matrix size = 74
fillins = 64
solver = Alternate
Thread vector: 24.0/14.2[2] 6.1/3.4[2] 2.5/1.5[2] 0.9/1.8[1]  2592/500
Matrix Compiler1: 6.23 KB object code size  1.6/1.2/[0.7]
Matrix Compiler2: 7.35 KB object code size  1.3/1.6/[0.8]


