Circuit: * D:\Users\Dan\Documents\GitHub\ThesisWork\LTSpice\PM_Modulator.asc

Direct Newton iteration for .op point succeeded.
Ignoring empty pin current: Ix(u6:1)
Ignoring empty pin current: Ix(u6:2)
Ignoring empty pin current: Ix(u7:1)
Ignoring empty pin current: Ix(u7:2)
Ignoring empty pin current: Ix(u8:1)
Ignoring empty pin current: Ix(u8:2)
Ignoring empty pin current: Ix(u6:1)
Ignoring empty pin current: Ix(u6:2)
Ignoring empty pin current: Ix(u7:1)
Ignoring empty pin current: Ix(u7:2)
Ignoring empty pin current: Ix(u8:1)
Ignoring empty pin current: Ix(u8:2)

Date: Tue Oct 25 21:14:58 2016
Total elapsed time: 0.147 seconds.

tnom = 27
temp = 27
method = modified trap
totiter = 6064
traniter = 6054
tranpoints = 2332
accept = 1813
rejected = 519
matrix size = 18
fillins = 6
solver = Alternate
Matrix Compiler1: 1.17 KB object code size  0.4/0.3/[0.2]
Matrix Compiler2: 1.57 KB object code size  0.3/0.4/[0.3]


