Circuit: * D:\Users\Dan\Documents\GitHub\ThesisWork\LTSpice\TSCSK_Real_FINAL.asc

WARNING: Less than two connections to node 5V.  This node is used by V3.
Early termination of direct N-R iteration.
Direct Newton iteration failed to find .op point.  (Use ".option noopiter" to skip.)
Starting Gmin stepping
Increasing initial diagonal Gmin to 100
Increasing initial diagonal Gmin to 1000
Gmin = 1000
Gmin = 107.374
Gmin = 11.5292
Gmin = 1.23794
Gmin = 0.132923
Gmin = 0.0142725
Gmin = 0.0015325
Gmin = 0.00016455
Gmin = 1.76685e-005
vernier = 0.5
vernier = 0.25
Gmin = 6.03354e-006
vernier = 0.333333
vernier = 0.166667
vernier = 0.222222
Gmin = 4.12847e-006
vernier = 0.296296
Gmin = 2.20401e-006
vernier = 0.395061
vernier = 0.526748
Gmin = 8.04581e-007
vernier = 0.702331
vernier = 0.936441
Gmin = 1.70419e-007
vernier = 1
Gmin = 1.95073e-008
Gmin = 2.09458e-009
Gmin = 2.24904e-010
Gmin = 2.41489e-011
Gmin = 2.59297e-012
Gmin = 2.78418e-013
Gmin = 2.98949e-014
Gmin = 3.20994e-015
Gmin = 0
Gmin stepping succeeded in finding the operating point.


Date: Mon Feb 13 00:25:26 2017
Total elapsed time: 114.550 seconds.

tnom = 27
temp = 27
method = modified trap
totiter = 1003426
traniter = 1001851
tranpoints = 238519
accept = 199630
rejected = 38889
matrix size = 202
fillins = 449
solver = Alternate
Thread vector: 237.5/82.0[4] 37.4/19.0[4] 17.6/7.9[4] 3.9/303.9[1]  2592/500
Matrix Compiler1: 41.36 KB object code size  11.3/6.9/[4.5]
Matrix Compiler2: 33.50 KB object code size  5.1/4.6/[2.9]


