Circuit: * D:\Users\Dan\Documents\GitHub\ThesisWork\LTSpice\TSCSK_Real_MC_FINAL.asc

WARNING: Less than two connections to node 5V.  This node is used by V3.
Early termination of direct N-R iteration.
Direct Newton iteration failed to find .op point.  (Use ".option noopiter" to skip.)
Starting Gmin stepping
Increasing initial diagonal Gmin to 100
Increasing initial diagonal Gmin to 1000
Gmin = 1000
Gmin = 107.374
Gmin = 11.5292
Gmin = 1.23794
Gmin = 0.132923
Gmin = 0.0142725
Gmin = 0.0015325
Gmin = 0.00016455
Gmin = 1.76685e-005
vernier = 0.5
vernier = 0.25
Gmin = 6.03354e-006
vernier = 0.333333
vernier = 0.166667
vernier = 0.222222
Gmin = 4.12847e-006
vernier = 0.296296
vernier = 0.148148
vernier = 0.074074
Gmin = 3.03701e-006
vernier = 0.0987653
vernier = 0.131687
Gmin = 2.40388e-006
vernier = 0.175583
vernier = 0.0877914
Gmin = 1.91554e-006
vernier = 0.117055
vernier = 0.0585276
vernier = 0.0780367
Gmin = 1.67301e-006
vernier = 0.0390184
vernier = 0.0520245
vernier = 0.0260122
Gmin = 1.60391e-006
vernier = 0.034683
vernier = 0.046244
Gmin = 1.47655e-006
vernier = 0.023122
vernier = 0.0308293
vernier = 0.0154146
Gmin = 1.44006e-006
vernier = 0.0205529
vernier = 0.0274038
Gmin = 1.37104e-006
vernier = 0.0365384
vernier = 0.0182692
Gmin = 1.30704e-006
vernier = 0.0243589
vernier = 0.0324786
Gmin = 1.22881e-006
vernier = 0.0433047
vernier = 0.0216524
Gmin = 1.16428e-006
vernier = 0.0288698
vernier = 0.0384931
vernier = 0.0192465
Gmin = 1.1038e-006
vernier = 0.025662
Gmin = 1.04205e-006
vernier = 0.0342161
vernier = 0.017108
vernier = 0.0228107
Gmin = 1.00279e-006
vernier = 0.0304143
vernier = 0.0152071
Gmin = 9.67303e-007
vernier = 0.0202762
vernier = 0.0270349
vernier = 0.0135174
vernier = 0.00675872
Gmin = 9.36816e-007
vernier = 0.00901162
Gmin = 9.18031e-007
vernier = 0.0120155
vernier = 0.0160207
Gmin = 8.87356e-007
vernier = 0.0213609
vernier = 0.0284812
vernier = 0.0142406
Gmin = 8.52605e-007
vernier = 0.0189874
Gmin = 8.17989e-007
vernier = 0.0253166
vernier = 0.0126583
vernier = 0.0168777
Gmin = 7.94644e-007
vernier = 0.0225036
vernier = 0.0112518
Gmin = 7.72642e-007
vernier = 0.0150024
vernier = 0.0200032
Gmin = 7.42172e-007
vernier = 0.0266709
vernier = 0.0133355
Gmin = 7.19081e-007
vernier = 0.0177806
vernier = 0.0237075
vernier = 0.0118537
Gmin = 6.96066e-007
vernier = 0.015805
vernier = 0.0210733
Gmin = 6.7025e-007
vernier = 0.0105366
vernier = 0.0140489
Gmin = 6.55716e-007
vernier = 0.0187318
vernier = 0.0093659
vernier = 0.0124879
Gmin = 6.41562e-007
vernier = 0.0166505
Gmin = 6.18656e-007
vernier = 0.0222006
vernier = 0.0111003
vernier = 0.0148004
Gmin = 6.03142e-007
vernier = 0.0197339
vernier = 0.00986695
Gmin = 5.8847e-007
vernier = 0.0131559
vernier = 0.0175412
vernier = 0.00877062
Gmin = 5.7431e-007
vernier = 0.0116942
Gmin = 5.59416e-007
vernier = 0.0155922
vernier = 0.0207896
vernier = 0.0103948
Gmin = 5.43679e-007
vernier = 0.0138597
vernier = 0.0184796
Gmin = 5.25952e-007
vernier = 0.00923982
vernier = 0.00461991
vernier = 0.00615988
Gmin = 5.22922e-007
vernier = 0.00821317
vernier = 0.0109509
Gmin = 5.12743e-007
vernier = 0.0146012
Gmin = 4.9665e-007
vernier = 0.0194682
vernier = 0.00973411
vernier = 0.00486706
vernier = 0.00648941
Gmin = 4.91048e-007
vernier = 0.00865254
Gmin = 4.8185e-007
vernier = 0.0115367
vernier = 0.0153823
vernier = 0.00769114
Gmin = 4.71666e-007
vernier = 0.0102549
Gmin = 4.6092e-007
vernier = 0.0136731
vernier = 0.0182308
vernier = 0.00911542
vernier = 0.00455771
Gmin = 4.51065e-007
vernier = 0.00607695
Gmin = 4.44943e-007
vernier = 0.00810259
vernier = 0.0108035
Gmin = 4.34857e-007
vernier = 0.0144046
vernier = 0.0072023
vernier = 0.00360115
Gmin = 4.30576e-007
vernier = 0.00480153
vernier = 0.00640204
Gmin = 4.24761e-007
vernier = 0.00853606
vernier = 0.0113814
Gmin = 4.15655e-007
vernier = 0.0151752
vernier = 0.0075876
Gmin = 4.07855e-007
vernier = 0.0101168
vernier = 0.0134891
vernier = 0.00674453
vernier = 0.00337227
Gmin = 4.00959e-007
vernier = 0.00449635
Gmin = 3.97037e-007
vernier = 0.00599514
vernier = 0.00799351
Gmin = 3.90696e-007
vernier = 0.010658
vernier = 0.0142107
Gmin = 3.80859e-007
vernier = 0.00710534
vernier = 0.00947379
Gmin = 3.75267e-007
vernier = 0.0126317
vernier = 0.00631586
vernier = 0.00842114
Gmin = 3.69783e-007
vernier = 0.0112282
Gmin = 3.60822e-007
vernier = 0.0149709
vernier = 0.00748545
vernier = 0.0099806
Gmin = 3.54692e-007
vernier = 0.0133075
vernier = 0.00665373
Gmin = 3.48847e-007
vernier = 0.00887164
vernier = 0.0118289
vernier = 0.00591443
Gmin = 3.43161e-007
vernier = 0.0078859
Gmin = 3.37132e-007
vernier = 0.0105145
vernier = 0.0140194
vernier = 0.00700968
Gmin = 3.30703e-007
vernier = 0.00934624
vernier = 0.0124617
Gmin = 3.23389e-007
vernier = 0.00623083
vernier = 0.00830777
Gmin = 3.19221e-007
vernier = 0.011077
vernier = 0.00553851
vernier = 0.00276926
Gmin = 3.16801e-007
vernier = 0.00369234
vernier = 0.00492312
Gmin = 3.13506e-007
vernier = 0.00656416
vernier = 0.00875221
Gmin = 3.08323e-007
vernier = 0.0116696
vernier = 0.0058348
Gmin = 3.03862e-007
vernier = 0.00777973
vernier = 0.010373
Gmin = 2.97582e-007
vernier = 0.0138306
vernier = 0.00691532
Gmin = 2.92739e-007
vernier = 0.00922042
vernier = 0.0122939
vernier = 0.00614694
vernier = 0.00307347
Gmin = 2.88501e-007
vernier = 0.00409796
Gmin = 2.85855e-007
vernier = 0.00546395
vernier = 0.00728526
Gmin = 2.81467e-007
vernier = 0.00971368
vernier = 0.0129516
vernier = 0.00647579
Gmin = 2.76393e-007
vernier = 0.00863438
Gmin = 2.71226e-007
vernier = 0.0115125
vernier = 0.00575625
vernier = 0.007675
Gmin = 2.67675e-007
vernier = 0.0102333
vernier = 0.00511666
vernier = 0.00255833
Gmin = 2.65121e-007
vernier = 0.00341111
vernier = 0.00454814
Gmin = 2.62834e-007
vernier = 0.00606419
Gmin = 2.59274e-007
vernier = 0.00808559
vernier = 0.0107808
vernier = 0.00539039
Gmin = 2.55463e-007
vernier = 0.00718718
vernier = 0.00958291
Gmin = 2.51105e-007
vernier = 0.00479145
vernier = 0.00239573
vernier = 0.0031943
Gmin = 2.50354e-007
vernier = 0.00425907
vernier = 0.00567876
Gmin = 2.47814e-007
vernier = 0.00757167
Gmin = 2.43747e-007
vernier = 0.0100956
vernier = 0.00504778
vernier = 0.00252389
vernier = 0.00336519
Gmin = 2.42316e-007
vernier = 0.00448691
Gmin = 2.39951e-007
vernier = 0.00598255
vernier = 0.00797673
Gmin = 2.36127e-007
vernier = 0.0106356
vernier = 0.00531782
Gmin = 2.33166e-007
vernier = 0.00709043
vernier = 0.0094539
vernier = 0.00472695
Gmin = 2.30157e-007
vernier = 0.0063026
vernier = 0.00840346
Gmin = 2.2671e-007
vernier = 0.0112046
vernier = 0.00560231
vernier = 0.00280115
Gmin = 2.2403e-007
vernier = 0.00373487
vernier = 0.00497983
Gmin = 2.22035e-007
vernier = 0.00663977
Gmin = 2.18836e-007
vernier = 0.00885302
vernier = 0.00442651
vernier = 0.00221325
vernier = 0.00295101
Gmin = 2.17709e-007
vernier = 0.00393467
Gmin = 2.15844e-007
vernier = 0.00524623
vernier = 0.00699497
Gmin = 2.12824e-007
vernier = 0.00932662
vernier = 0.00466331
Gmin = 2.10482e-007
vernier = 0.00621775
vernier = 0.00829033
Gmin = 2.0681e-007
vernier = 0.0110538
vernier = 0.00552688
vernier = 0.00276344
Gmin = 2.05245e-007
vernier = 0.00368459
vernier = 0.00491278
Gmin = 2.03115e-007
vernier = 0.00655038
vernier = 0.00873383
vernier = 0.00436692
Gmin = 2.00637e-007
vernier = 0.00218346
vernier = 0.00291128
Gmin = 1.99509e-007
vernier = 0.0038817
vernier = 0.0051756
Gmin = 1.97551e-007
vernier = 0.0069008
Gmin = 1.9451e-007
vernier = 0.00920106
vernier = 0.00460053
vernier = 0.00613404
Gmin = 1.92508e-007
vernier = 0.00817872
vernier = 0.00408936
Gmin = 1.90649e-007
vernier = 0.00545248
vernier = 0.00726997
Gmin = 1.87729e-007
vernier = 0.00969329
vernier = 0.00484665
vernier = 0.00242332
Gmin = 1.86482e-007
vernier = 0.0032311
vernier = 0.00430813
Gmin = 1.84784e-007
vernier = 0.00574417
vernier = 0.00765889
Gmin = 1.82108e-007
vernier = 0.0102118
vernier = 0.00510592
vernier = 0.00255296
Gmin = 1.80374e-007
vernier = 0.00340395
vernier = 0.0045386
Gmin = 1.78821e-007
vernier = 0.00605146
Gmin = 1.76404e-007
vernier = 0.00806861
vernier = 0.00403431
vernier = 0.00201715
vernier = 0.00268954
Gmin = 1.75724e-007
vernier = 0.00358605
Gmin = 1.74312e-007
vernier = 0.0047814
vernier = 0.00637519
Gmin = 1.71968e-007
vernier = 0.00850026
vernier = 0.00425013
vernier = 0.00566684
Gmin = 1.70272e-007
vernier = 0.00755578
Gmin = 1.67483e-007
vernier = 0.0100744
vernier = 0.00503719
vernier = 0.00251859
vernier = 0.00335812
Gmin = 1.66503e-007
vernier = 0.0044775
Gmin = 1.64881e-007
vernier = 0.00596999
vernier = 0.00795999
vernier = 0.00397999
Gmin = 1.63067e-007
vernier = 0.00530666
Gmin = 1.61132e-007
vernier = 0.00707554
vernier = 0.00943405
vernier = 0.00471703
vernier = 0.00235851
Gmin = 1.59339e-007
vernier = 0.00314468
Gmin = 1.58216e-007
vernier = 0.00419291
vernier = 0.00559055
Gmin = 1.56349e-007
vernier = 0.00745406
vernier = 0.00372703
vernier = 0.00186351
Gmin = 1.5555e-007
vernier = 0.00248469
vernier = 0.00331291
Gmin = 1.54459e-007
vernier = 0.00441722
vernier = 0.00588962
Gmin = 1.52736e-007
vernier = 0.00785283
vernier = 0.00392641
Gmin = 1.51245e-007
vernier = 0.00523522
vernier = 0.00698029
Gmin = 1.49133e-007
vernier = 0.00930705
vernier = 0.00465352
vernier = 0.00232676
Gmin = 1.4801e-007
vernier = 0.00310235
vernier = 0.00413646
Gmin = 1.46782e-007
vernier = 0.00551528
vernier = 0.00735371
Gmin = 1.44856e-007
vernier = 0.00367685
vernier = 0.00490247
Gmin = 1.43752e-007
vernier = 0.00653663
vernier = 0.0087155
vernier = 0.00435775
Gmin = 1.42002e-007
vernier = 0.00217887
vernier = 0.00290517
Gmin = 1.41205e-007
vernier = 0.00387355
vernier = 0.00516474
Gmin = 1.39822e-007
vernier = 0.00688631
Gmin = 1.37674e-007
vernier = 0.00918175
vernier = 0.00459087
vernier = 0.00229544
vernier = 0.00306058
Gmin = 1.3707e-007
vernier = 0.00408078
Gmin = 1.35818e-007
vernier = 0.00544103
vernier = 0.00725471
vernier = 0.00362735
vernier = 0.00181368
Gmin = 1.34654e-007
vernier = 0.00241824
Gmin = 1.33923e-007
vernier = 0.00322431
vernier = 0.00429908
Gmin = 1.32706e-007
vernier = 0.00573211
vernier = 0.00764281
vernier = 0.00382141
Gmin = 1.31288e-007
vernier = 0.0019107
vernier = 0.0025476
Gmin = 1.30642e-007
vernier = 0.0033968
vernier = 0.00452907
Gmin = 1.29519e-007
vernier = 0.00603876
Gmin = 1.27773e-007
vernier = 0.00805168
vernier = 0.00402584
vernier = 0.00201292
vernier = 0.00268389
Gmin = 1.27281e-007
vernier = 0.00357852
Gmin = 1.2626e-007
vernier = 0.00477136
vernier = 0.00636181
Gmin = 1.24566e-007
vernier = 0.00848241
vernier = 0.0113099
vernier = 0.00565494
Gmin = 1.22603e-007
vernier = 0.00282747
vernier = 0.00376996
Gmin = 1.21711e-007
vernier = 0.00502661
vernier = 0.00670215
vernier = 0.00335107
Gmin = 1.2057e-007
vernier = 0.00167554
vernier = 0.00223405
Gmin = 1.20049e-007
vernier = 0.00297873
vernier = 0.00397164
Gmin = 1.19144e-007
vernier = 0.00529552
Gmin = 1.17734e-007
vernier = 0.00706069
vernier = 0.00353034
vernier = 0.00470712
Gmin = 1.16803e-007
vernier = 0.00627616
vernier = 0.00836822
Gmin = 1.15061e-007
vernier = 0.00418411
vernier = 0.00209205
vernier = 0.00278941
Gmin = 1.1476e-007
vernier = 0.00371921
vernier = 0.00495894
Gmin = 1.13743e-007
vernier = 0.00661192
Gmin = 1.12111e-007
vernier = 0.00881589
vernier = 0.00440794
vernier = 0.00220397
vernier = 0.00293863
Gmin = 1.11536e-007
vernier = 0.00391817
Gmin = 1.10584e-007
vernier = 0.00522423
vernier = 0.00696563
vernier = 0.00348282
vernier = 0.00174141
Gmin = 1.09614e-007
vernier = 0.00232188
Gmin = 1.09059e-007
vernier = 0.00309584
vernier = 0.00412778
Gmin = 1.08156e-007
vernier = 0.00550371
vernier = 0.00733827
Gmin = 1.0674e-007
vernier = 0.00366914
vernier = 0.00183457
vernier = 0.00244609
Gmin = 1.06495e-007
vernier = 0.00326145
vernier = 0.0043486
Gmin = 1.05667e-007
vernier = 0.00579813
Gmin = 1.04336e-007
vernier = 0.00773084
vernier = 0.00386542
vernier = 0.00193271
vernier = 0.00257695
Gmin = 1.03867e-007
vernier = 0.00343593
Gmin = 1.03089e-007
vernier = 0.00458124
vernier = 0.00610832
Gmin = 1.01829e-007
vernier = 0.00814442
vernier = 0.00407221
vernier = 0.0020361
Gmin = 1.01157e-007
vernier = 0.00271481
vernier = 0.00361974
Gmin = 1.00422e-007
vernier = 0.00482632
vernier = 0.00643509
Gmin = 9.92685e-008
vernier = 0.00321754
vernier = 0.00429006
Gmin = 9.86056e-008
vernier = 0.00572008
vernier = 0.00762677
vernier = 0.00381338
Gmin = 9.75544e-008
vernier = 0.00190669
vernier = 0.00254226
Gmin = 9.70752e-008
vernier = 0.00338967
vernier = 0.00451956
Gmin = 9.62428e-008
vernier = 0.00602608
Gmin = 9.49476e-008
vernier = 0.00803477
vernier = 0.00401739
vernier = 0.00200869
vernier = 0.00267826
Gmin = 9.45828e-008
vernier = 0.00357101
Gmin = 9.38262e-008
vernier = 0.00476134
vernier = 0.00634846
vernier = 0.00317423
Gmin = 9.30112e-008
vernier = 0.0042323
vernier = 0.00564307
Gmin = 9.20734e-008
vernier = 0.00752409
vernier = 0.00376205
vernier = 0.00188102
Gmin = 9.13407e-008
vernier = 0.00250803
vernier = 0.00334404
Gmin = 9.07937e-008
vernier = 0.00445872
Gmin = 8.99129e-008
vernier = 0.00594496
vernier = 0.00297248
vernier = 0.00148624
vernier = 0.00198165
Gmin = 8.96017e-008
vernier = 0.0026422
Gmin = 8.90855e-008
vernier = 0.00352293
vernier = 0.00469724
Gmin = 8.82464e-008
vernier = 0.00626299
vernier = 0.0031315
Gmin = 8.75928e-008
vernier = 0.00417533
vernier = 0.0055671
Gmin = 8.65633e-008
vernier = 0.0074228
vernier = 0.0037114
vernier = 0.0018557
Gmin = 8.61229e-008
vernier = 0.00247427
vernier = 0.00329902
Gmin = 8.55215e-008
vernier = 0.00439869
vernier = 0.00586492
vernier = 0.00293246
Gmin = 8.48194e-008
vernier = 0.00390995
Gmin = 8.40973e-008
vernier = 0.00521326
vernier = 0.00695101
vernier = 0.00347551
vernier = 0.00173775
Gmin = 8.33612e-008
vernier = 0.002317
Gmin = 8.29399e-008
vernier = 0.00308934
vernier = 0.00411911
Gmin = 8.22544e-008
vernier = 0.00549215
vernier = 0.00732287
Gmin = 8.11799e-008
vernier = 0.00366143
vernier = 0.00183072
vernier = 0.00244096
Gmin = 8.09943e-008
vernier = 0.00325461
vernier = 0.00433947
Gmin = 8.03654e-008
vernier = 0.00578596
vernier = 0.00289298
vernier = 0.00144649
Gmin = 7.98732e-008
vernier = 0.00192865
vernier = 0.00257154
Gmin = 7.9505e-008
vernier = 0.00342872
Gmin = 7.89112e-008
vernier = 0.00457162
vernier = 0.00609549
vernier = 0.00304775
vernier = 0.00152387
Gmin = 7.83051e-008
vernier = 0.00203183
Gmin = 7.79579e-008
vernier = 0.00270911
vernier = 0.00361214
Gmin = 7.73926e-008
vernier = 0.00481619
vernier = 0.00642158
Gmin = 7.65052e-008
vernier = 0.00321079
vernier = 0.0016054
vernier = 0.00214053
Gmin = 7.63518e-008
vernier = 0.00285403
vernier = 0.00380538
Gmin = 7.58317e-008
vernier = 0.00507384
Gmin = 7.49952e-008
vernier = 0.00676511
vernier = 0.00338256
vernier = 0.00169128
vernier = 0.00225504
Gmin = 7.46999e-008
vernier = 0.00300672
Gmin = 7.42104e-008
vernier = 0.00400895
vernier = 0.00534527
Gmin = 7.34155e-008
vernier = 0.00712703
vernier = 0.00356351
vernier = 0.00178176
Gmin = 7.29919e-008
vernier = 0.00237567
vernier = 0.00316757
Gmin = 7.25275e-008
vernier = 0.00422342
vernier = 0.00563122
Gmin = 7.17977e-008
vernier = 0.00281561
vernier = 0.00140781
vernier = 0.00187707
Gmin = 7.16714e-008
vernier = 0.00250276
vernier = 0.00333702
Gmin = 7.12431e-008
vernier = 0.00444936
Gmin = 7.05534e-008
vernier = 0.00593248
vernier = 0.00790997
vernier = 0.00395498
Gmin = 6.97821e-008
vernier = 0.00527331
Gmin = 6.89595e-008
vernier = 0.00703108
vernier = 0.00351554
vernier = 0.00175777
vernier = 0.00234369
Gmin = 6.87276e-008
vernier = 0.00312492
Gmin = 6.82463e-008
vernier = 0.00416656
vernier = 0.00555541
vernier = 0.00277771
Gmin = 6.77272e-008
vernier = 0.00370361
vernier = 0.00493814
Gmin = 6.71292e-008
vernier = 0.00658419
vernier = 0.00329209
vernier = 0.00164605
Gmin = 6.66615e-008
vernier = 0.00219473
vernier = 0.0029263
Gmin = 6.6312e-008
vernier = 0.00390174
Gmin = 6.57486e-008
vernier = 0.00520232
vernier = 0.00693642
vernier = 0.00346821
vernier = 0.00173411
Gmin = 6.51743e-008
vernier = 0.00231214
Gmin = 6.48456e-008
vernier = 0.00308285
vernier = 0.00411047
Gmin = 6.43108e-008
vernier = 0.00548062
vernier = 0.00274031
Gmin = 6.38938e-008
vernier = 0.00365375
vernier = 0.00487166
Gmin = 6.32361e-008
vernier = 0.00649555
vernier = 0.00324777
vernier = 0.00162389
Gmin = 6.29544e-008
vernier = 0.00216518
vernier = 0.00288691
Gmin = 6.25695e-008
vernier = 0.00384921
vernier = 0.00513228
Gmin = 6.19607e-008
vernier = 0.00684304
vernier = 0.00342152
Gmin = 6.14332e-008
vernier = 0.00456202
vernier = 0.0060827
vernier = 0.00304135
vernier = 0.00152067
Gmin = 6.09624e-008
vernier = 0.00202757
Gmin = 6.06926e-008
vernier = 0.00270342
vernier = 0.00360456
Gmin = 6.02534e-008
vernier = 0.00480608
vernier = 0.0064081
Gmin = 5.9564e-008
vernier = 0.00320405
vernier = 0.00160203
vernier = 0.00213603
Gmin = 5.94449e-008
vernier = 0.00284804
vernier = 0.00379739
Gmin = 5.90408e-008
vernier = 0.00506319
Gmin = 5.83908e-008
vernier = 0.00675091
vernier = 0.00337546
vernier = 0.00168773
vernier = 0.0022503
Gmin = 5.81614e-008
vernier = 0.0030004
Gmin = 5.7781e-008
vernier = 0.00400054
vernier = 0.00533405
vernier = 0.00266702
Gmin = 5.73542e-008
vernier = 0.00355603
Gmin = 5.68973e-008
vernier = 0.00474137
vernier = 0.00632183
vernier = 0.00316092
vernier = 0.00158046
Gmin = 5.64721e-008
vernier = 0.00210728
Gmin = 5.6205e-008
vernier = 0.0028097
vernier = 0.00374627
Gmin = 5.57595e-008
vernier = 0.00499502
vernier = 0.00666003
vernier = 0.00333001
Gmin = 5.524e-008
vernier = 0.00166501
vernier = 0.00222001
Gmin = 5.5003e-008
vernier = 0.00296001
vernier = 0.00394668
Gmin = 5.45909e-008
vernier = 0.00526224
vernier = 0.00263112
Gmin = 5.42331e-008
vernier = 0.00350816
vernier = 0.00467754
Gmin = 5.37245e-008
vernier = 0.00623672
vernier = 0.00311836
vernier = 0.00155918
Gmin = 5.3453e-008
vernier = 0.00207891
vernier = 0.00277188
Gmin = 5.31553e-008
vernier = 0.00369583
vernier = 0.00492778
Gmin = 5.26869e-008
vernier = 0.00657037
vernier = 0.00328518
vernier = 0.00164259
Gmin = 5.23206e-008
vernier = 0.00219012
vernier = 0.00292016
Gmin = 5.20469e-008
vernier = 0.00389355
Gmin = 5.16057e-008
vernier = 0.0051914
vernier = 0.0025957
vernier = 0.00346093
Gmin = 5.12997e-008
vernier = 0.00461457
Gmin = 5.07701e-008
vernier = 0.00615276
vernier = 0.00307638
vernier = 0.00153819
vernier = 0.00205092
Gmin = 5.06207e-008
vernier = 0.00273456
Gmin = 5.03103e-008
vernier = 0.00364608
vernier = 0.00486144
Gmin = 4.97935e-008
vernier = 0.00648191
vernier = 0.00324096
vernier = 0.00162048
Gmin = 4.95722e-008
vernier = 0.00216064
vernier = 0.00288085
Gmin = 4.92697e-008
vernier = 0.00384113
vernier = 0.00512151
vernier = 0.00256075
Gmin = 4.89163e-008
vernier = 0.00341434
Gmin = 4.85525e-008
vernier = 0.00455245
vernier = 0.00606993
vernier = 0.00303496
vernier = 0.00151748
Gmin = 4.81811e-008
vernier = 0.00202331
Gmin = 4.79684e-008
vernier = 0.00269774
vernier = 0.00359699
Gmin = 4.7622e-008
vernier = 0.00479599
vernier = 0.00639465
Gmin = 4.70783e-008
vernier = 0.00319732
vernier = 0.00159866
vernier = 0.00213155
Gmin = 4.69842e-008
vernier = 0.00284207
vernier = 0.00378942
Gmin = 4.66655e-008
vernier = 0.00505256
vernier = 0.00252628
Gmin = 4.63572e-008
vernier = 0.00336837
vernier = 0.00449116
Gmin = 4.59622e-008
vernier = 0.00598821
vernier = 0.00299411
vernier = 0.00149705
Gmin = 4.5705e-008
vernier = 0.00199607
vernier = 0.00266143
Gmin = 4.54738e-008
vernier = 0.00354857
Gmin = 4.51123e-008
vernier = 0.00473142
vernier = 0.00630856
vernier = 0.00315428
vernier = 0.00157714
Gmin = 4.47758e-008
vernier = 0.00210285
Gmin = 4.45645e-008
vernier = 0.0028038
vernier = 0.0037384
Gmin = 4.4212e-008
vernier = 0.00498454
vernier = 0.00249227
vernier = 0.00332302
Gmin = 4.39558e-008
vernier = 0.0044307
Gmin = 4.3532e-008
vernier = 0.0059076
vernier = 0.0029538
vernier = 0.0014769
vernier = 0.0019692
Gmin = 4.33823e-008
vernier = 0.0026256
Gmin = 4.31339e-008
vernier = 0.00350079
vernier = 0.00466772
Gmin = 4.27302e-008
vernier = 0.00622363
vernier = 0.00311182
vernier = 0.00155591
Gmin = 4.25148e-008
vernier = 0.00207454
vernier = 0.00276606
Gmin = 4.22785e-008
vernier = 0.00368808
vernier = 0.00491743
Gmin = 4.19067e-008
vernier = 0.00245872
vernier = 0.00327829
Gmin = 4.16927e-008
vernier = 0.00437105
vernier = 0.00582806
vernier = 0.00291403
Gmin = 4.13525e-008
vernier = 0.00145702
vernier = 0.00194269
Gmin = 4.11972e-008
vernier = 0.00259025
vernier = 0.00345366
Gmin = 4.0927e-008
vernier = 0.00460489
Gmin = 4.05053e-008
vernier = 0.00613985
vernier = 0.00306992
vernier = 0.00153496
vernier = 0.00204661
Gmin = 4.03864e-008
vernier = 0.00272882
Gmin = 4.01392e-008
vernier = 0.00363842
vernier = 0.00485123
Gmin = 3.97278e-008
vernier = 0.00646831
vernier = 0.00323415
vernier = 0.00161708
Gmin = 3.95516e-008
vernier = 0.0021561
vernier = 0.0028748
Gmin = 3.93108e-008
vernier = 0.00383307
vernier = 0.00511076
vernier = 0.00255538
Gmin = 3.90294e-008
vernier = 0.00127769
vernier = 0.00170358
Gmin = 3.89008e-008
vernier = 0.00227145
vernier = 0.00302859
Gmin = 3.86769e-008
vernier = 0.00403812
Gmin = 3.83273e-008
vernier = 0.00538416
vernier = 0.00269208
vernier = 0.00134604
vernier = 0.00179472
Gmin = 3.82285e-008
vernier = 0.00239296
Gmin = 3.80233e-008
vernier = 0.00319061
vernier = 0.00425415
Gmin = 3.76813e-008
vernier = 0.0056722
vernier = 0.0028361
vernier = 0.00141805
Gmin = 3.75347e-008
vernier = 0.00189073
vernier = 0.00252098
Gmin = 3.73342e-008
vernier = 0.0033613
vernier = 0.00448173
Gmin = 3.70167e-008
vernier = 0.00597564
vernier = 0.00298782
vernier = 0.00149391
Gmin = 3.681e-008
vernier = 0.00199188
vernier = 0.00265584
Gmin = 3.66242e-008
vernier = 0.00354112
Gmin = 3.63337e-008
vernier = 0.00472149
vernier = 0.00629532
vernier = 0.00314766
vernier = 0.00157383
Gmin = 3.60632e-008
vernier = 0.00209844
Gmin = 3.58934e-008
vernier = 0.00279792
vernier = 0.00373056
Gmin = 3.56101e-008
vernier = 0.00497407
vernier = 0.00248704
vernier = 0.00124352
Gmin = 3.54886e-008
vernier = 0.00165802
vernier = 0.0022107
Gmin = 3.53223e-008
vernier = 0.0029476
vernier = 0.00393013
Gmin = 3.50587e-008
vernier = 0.00524017
vernier = 0.00262008
vernier = 0.00131004
Gmin = 3.4887e-008
vernier = 0.00174672
vernier = 0.00232896
Gmin = 3.47325e-008
vernier = 0.00310528
Gmin = 3.44908e-008
vernier = 0.00414038
vernier = 0.00207019
vernier = 0.00276025
Gmin = 3.43305e-008
vernier = 0.00368033
vernier = 0.00490711
Gmin = 3.40293e-008
vernier = 0.00245355
vernier = 0.00122678
vernier = 0.0016357
Gmin = 3.39771e-008
vernier = 0.00218094
vernier = 0.00290791
Gmin = 3.38001e-008
vernier = 0.00387722
Gmin = 3.35148e-008
vernier = 0.00516962
vernier = 0.00258481
vernier = 0.00129241
vernier = 0.00172321
Gmin = 3.34139e-008
vernier = 0.00229761
Gmin = 3.32464e-008
vernier = 0.00306348
vernier = 0.00408464
Gmin = 3.29739e-008
vernier = 0.00544618
vernier = 0.00272309
vernier = 0.00136155
Gmin = 3.28284e-008
vernier = 0.00181539
vernier = 0.00242052
Gmin = 3.26687e-008
vernier = 0.00322736
vernier = 0.00430315
Gmin = 3.24171e-008
vernier = 0.00573753
vernier = 0.00286877
vernier = 0.00143438
Gmin = 3.22202e-008
vernier = 0.00191251
vernier = 0.00255001
Gmin = 3.2073e-008
vernier = 0.00340002
Gmin = 3.18354e-008
vernier = 0.00453336
vernier = 0.00604447
vernier = 0.00302224
vernier = 0.00151112
Gmin = 3.15929e-008
vernier = 0.00201482
Gmin = 3.1454e-008
vernier = 0.00268643
vernier = 0.00358191
Gmin = 3.12278e-008
vernier = 0.00477587
vernier = 0.00238794
vernier = 0.00119397
Gmin = 3.11069e-008
vernier = 0.00159196
vernier = 0.00212261
Gmin = 3.09741e-008
vernier = 0.00283015
vernier = 0.00377353
Gmin = 3.07649e-008
vernier = 0.00503137
vernier = 0.00251568
vernier = 0.00125784
Gmin = 3.06009e-008
vernier = 0.00167712
vernier = 0.00223616
Gmin = 3.04783e-008
vernier = 0.00298155
Gmin = 3.02802e-008
vernier = 0.0039754
vernier = 0.00530053
vernier = 0.00265026
vernier = 0.00132513
Gmin = 3.00778e-008
vernier = 0.00176684
Gmin = 2.99618e-008
vernier = 0.00235579
vernier = 0.00314105
Gmin = 2.97728e-008
vernier = 0.00418807
vernier = 0.00558409
Gmin = 2.94757e-008
vernier = 0.00279204
vernier = 0.00139602
vernier = 0.00186136
Gmin = 2.94243e-008
vernier = 0.00248182
vernier = 0.00330909
Gmin = 2.92499e-008
vernier = 0.00441212
Gmin = 2.89691e-008
vernier = 0.00588282
vernier = 0.00294141
vernier = 0.0014707
vernier = 0.00196094
Gmin = 2.88699e-008
vernier = 0.00261458
Gmin = 2.87053e-008
vernier = 0.00348611
vernier = 0.00464815
vernier = 0.00232407
Gmin = 2.85204e-008
vernier = 0.00309876
Gmin = 2.83223e-008
vernier = 0.00413169
vernier = 0.00550891
vernier = 0.00275446
vernier = 0.00137723
Gmin = 2.81378e-008
vernier = 0.0018363
Gmin = 2.80218e-008
vernier = 0.0024484
vernier = 0.00326454
Gmin = 2.78281e-008
vernier = 0.00435272
vernier = 0.00580362
vernier = 0.00290181
Gmin = 2.7602e-008
vernier = 0.00145091
vernier = 0.00193454
Gmin = 2.74988e-008
vernier = 0.00257939
vernier = 0.00343918
Gmin = 2.73192e-008
vernier = 0.00458557
Gmin = 2.70389e-008
vernier = 0.0061141
vernier = 0.00305705
vernier = 0.00152852
vernier = 0.00203803
Gmin = 2.69598e-008
vernier = 0.00271737
Gmin = 2.67955e-008
vernier = 0.00362316
vernier = 0.00483089
vernier = 0.00241544
Gmin = 2.66182e-008
vernier = 0.00322059
vernier = 0.00429412
Gmin = 2.64137e-008
vernier = 0.00572549
vernier = 0.00286274
vernier = 0.00143137
Gmin = 2.62536e-008
vernier = 0.0019085
vernier = 0.00254466
Gmin = 2.61338e-008
vernier = 0.00339288
Gmin = 2.59407e-008
vernier = 0.00452384
vernier = 0.00603178
vernier = 0.00301589
vernier = 0.00150795
Gmin = 2.57435e-008
vernier = 0.00201059
Gmin = 2.56305e-008
vernier = 0.00268079
vernier = 0.00357439
Gmin = 2.54466e-008
vernier = 0.00476585
vernier = 0.00238292
vernier = 0.00119146
Gmin = 2.53483e-008
vernier = 0.00158862
vernier = 0.00211815
Gmin = 2.52403e-008
vernier = 0.0028242
vernier = 0.00376561
Gmin = 2.50702e-008
vernier = 0.00502081
vernier = 0.0025104
vernier = 0.0012552
Gmin = 2.49369e-008
vernier = 0.0016736
vernier = 0.00223147
Gmin = 2.48371e-008
vernier = 0.00297529
Gmin = 2.4676e-008
vernier = 0.00396705
vernier = 0.0052894
vernier = 0.0026447
vernier = 0.00132235
Gmin = 2.45115e-008
vernier = 0.00176313
Gmin = 2.44171e-008
vernier = 0.00235084
vernier = 0.00313446
Gmin = 2.42634e-008
vernier = 0.00417928
vernier = 0.00557237
Gmin = 2.40218e-008
vernier = 0.00278618
vernier = 0.00139309
vernier = 0.00185746
Gmin = 2.398e-008
vernier = 0.00247661
vernier = 0.00330214
Gmin = 2.38382e-008
vernier = 0.00440285
Gmin = 2.36098e-008
vernier = 0.00587047
vernier = 0.00293523
vernier = 0.00146762
vernier = 0.00195682
Gmin = 2.35291e-008
vernier = 0.0026091
Gmin = 2.33952e-008
vernier = 0.00347879
vernier = 0.00463839
Gmin = 2.31776e-008
vernier = 0.00618452
vernier = 0.00309226
vernier = 0.00154613
Gmin = 2.30615e-008
vernier = 0.00206151
vernier = 0.00274867
Gmin = 2.29341e-008
vernier = 0.0036649
vernier = 0.00488653
Gmin = 2.27337e-008
vernier = 0.00244326
vernier = 0.00122163
vernier = 0.00162884
Gmin = 2.2699e-008
vernier = 0.00217179
vernier = 0.00289572
Gmin = 2.25813e-008
vernier = 0.00386096
Gmin = 2.23914e-008
vernier = 0.00514794
vernier = 0.00257397
vernier = 0.00128699
vernier = 0.00171598
Gmin = 2.23243e-008
vernier = 0.00228797
Gmin = 2.22129e-008
vernier = 0.00305063
vernier = 0.00406751
Gmin = 2.20316e-008
vernier = 0.00542334
vernier = 0.00271167
vernier = 0.00135583
Gmin = 2.19348e-008
vernier = 0.00180778
vernier = 0.00241037
Gmin = 2.18285e-008
vernier = 0.00321383
vernier = 0.0042851
Gmin = 2.16611e-008
vernier = 0.00571347
vernier = 0.00285674
vernier = 0.00142837
Gmin = 2.15301e-008
vernier = 0.00190449
vernier = 0.00253932
Gmin = 2.14321e-008
vernier = 0.00338576
Gmin = 2.1274e-008
vernier = 0.00451434
vernier = 0.00225717
vernier = 0.00112859
vernier = 0.00150478
Gmin = 2.12181e-008
vernier = 0.00200637
Gmin = 2.11252e-008
vernier = 0.00267516
vernier = 0.00356688
Gmin = 2.09739e-008
vernier = 0.00475584
vernier = 0.00237792
vernier = 0.00118896
Gmin = 2.0893e-008
vernier = 0.00158528
vernier = 0.00211371
Gmin = 2.08042e-008
vernier = 0.00281828
vernier = 0.0037577
Gmin = 2.06643e-008
vernier = 0.00501027
vernier = 0.00250513
vernier = 0.00125257
Gmin = 2.05546e-008
vernier = 0.00167009
vernier = 0.00222678
Gmin = 2.04725e-008
vernier = 0.00296904
Gmin = 2.03401e-008
vernier = 0.00395872
vernier = 0.0052783
vernier = 0.00263915
vernier = 0.00131957
Gmin = 2.02047e-008
vernier = 0.00175943
Gmin = 2.01271e-008
vernier = 0.00234591
vernier = 0.00312788
Gmin = 2.00006e-008
vernier = 0.0041705
vernier = 0.00556067
Gmin = 1.98019e-008
vernier = 0.00278033
vernier = 0.00139017
vernier = 0.00185356
Gmin = 1.97675e-008
vernier = 0.00247141
vernier = 0.00329521
Gmin = 1.96508e-008
vernier = 0.00439361
Gmin = 1.9463e-008
vernier = 0.00585815
vernier = 0.00781086
Gmin = 1.91592e-008
vernier = 0.0104145
vernier = 0.00520724
vernier = 0.00260362
vernier = 0.00130181
Gmin = 1.90288e-008
vernier = 0.00173575
vernier = 0.00231433
Gmin = 1.89451e-008
vernier = 0.00308577
Gmin = 1.8814e-008
vernier = 0.00411436
vernier = 0.00548581
vernier = 0.0027429
vernier = 0.00137145
Gmin = 1.86919e-008
vernier = 0.0018286
Gmin = 1.86152e-008
vernier = 0.00243814
vernier = 0.00325085
Gmin = 1.84871e-008
vernier = 0.00433446
vernier = 0.00577928
vernier = 0.00288964
Gmin = 1.83375e-008
vernier = 0.00144482
vernier = 0.00192643
Gmin = 1.82692e-008
vernier = 0.00256857
vernier = 0.00342476
Gmin = 1.81504e-008
vernier = 0.00456634
vernier = 0.00228317
vernier = 0.00114159
Gmin = 1.80729e-008
vernier = 0.00152211
vernier = 0.00202948
Gmin = 1.80031e-008
vernier = 0.00270598
Gmin = 1.78939e-008
vernier = 0.00360797
vernier = 0.00481062
vernier = 0.00240531
vernier = 0.00120266
Gmin = 1.7792e-008
vernier = 0.00160354
Gmin = 1.77279e-008
vernier = 0.00213805
vernier = 0.00285074
Gmin = 1.76209e-008
vernier = 0.00380098
vernier = 0.00506798
vernier = 0.00253399
Gmin = 1.74958e-008
vernier = 0.00126699
vernier = 0.00168933
Gmin = 1.74386e-008
vernier = 0.00225243
vernier = 0.00300324
Gmin = 1.73391e-008
vernier = 0.00400432
Gmin = 1.71837e-008
vernier = 0.0053391
vernier = 0.00266955
vernier = 0.00133477
vernier = 0.0017797
Gmin = 1.71398e-008
vernier = 0.00237293
Gmin = 1.70485e-008
vernier = 0.00316391
vernier = 0.00421854
Gmin = 1.68965e-008
vernier = 0.00562472
vernier = 0.00281236
vernier = 0.00140618
Gmin = 1.68313e-008
vernier = 0.00187491
vernier = 0.00249987
Gmin = 1.67421e-008
vernier = 0.00333316
vernier = 0.00444422
vernier = 0.00222211
Gmin = 1.66379e-008
vernier = 0.00111105
vernier = 0.00148141
Gmin = 1.65902e-008
vernier = 0.00197521
vernier = 0.00263361
Gmin = 1.65071e-008
vernier = 0.00351148
Gmin = 1.63773e-008
vernier = 0.00468197
vernier = 0.00234098
vernier = 0.00117049
vernier = 0.00156066
Gmin = 1.63406e-008
vernier = 0.00208087
Gmin = 1.62643e-008
vernier = 0.0027745
vernier = 0.00369933
Gmin = 1.6137e-008
vernier = 0.00493244
vernier = 0.00246622
vernier = 0.00123311
Gmin = 1.60823e-008
vernier = 0.00164415
vernier = 0.00219219
Gmin = 1.60076e-008
vernier = 0.00292292
vernier = 0.00389723
Gmin = 1.58892e-008
vernier = 0.00519631
vernier = 0.00259815
vernier = 0.00129908
Gmin = 1.5812e-008
vernier = 0.0017321
vernier = 0.00230947
Gmin = 1.57426e-008
vernier = 0.00307929
Gmin = 1.56339e-008
vernier = 0.00410572
vernier = 0.00547429
vernier = 0.00273715
vernier = 0.00136857
Gmin = 1.55327e-008
vernier = 0.00182476
Gmin = 1.5469e-008
vernier = 0.00243302
vernier = 0.00324402
Gmin = 1.53628e-008
vernier = 0.00432536
vernier = 0.00576715
vernier = 0.00288357
Gmin = 1.52388e-008
vernier = 0.00144179
vernier = 0.00192238
Gmin = 1.51821e-008
vernier = 0.00256318
vernier = 0.00341757
Gmin = 1.50836e-008
vernier = 0.00455676
vernier = 0.00227838
vernier = 0.00113919
Gmin = 1.50193e-008
vernier = 0.00151892
vernier = 0.00202522
Gmin = 1.49614e-008
vernier = 0.0027003
Gmin = 1.48708e-008
vernier = 0.0036004
vernier = 0.00480053
vernier = 0.00240026
vernier = 0.00120013
Gmin = 1.47863e-008
vernier = 0.00160018
Gmin = 1.47332e-008
vernier = 0.00213357
vernier = 0.00284475
Gmin = 1.46444e-008
vernier = 0.003793
vernier = 0.00505734
vernier = 0.00252867
Gmin = 1.45407e-008
vernier = 0.00126433
vernier = 0.00168578
Gmin = 1.44933e-008
vernier = 0.0022477
vernier = 0.00299694
Gmin = 1.44108e-008
vernier = 0.00399592
Gmin = 1.42818e-008
vernier = 0.00532789
vernier = 0.00266394
vernier = 0.00133197
vernier = 0.00177596
Gmin = 1.42454e-008
vernier = 0.00236795
Gmin = 1.41698e-008
vernier = 0.00315727
vernier = 0.00420969
Gmin = 1.40436e-008
vernier = 0.00561291
vernier = 0.00280646
vernier = 0.00140323
Gmin = 1.39896e-008
vernier = 0.00187097
vernier = 0.00249463
Gmin = 1.39156e-008
vernier = 0.00332617
vernier = 0.00443489
vernier = 0.00221744
Gmin = 1.38291e-008
vernier = 0.00295659
Gmin = 1.374e-008
vernier = 0.00394212
vernier = 0.00525616
vernier = 0.00262808
vernier = 0.00131404
Gmin = 1.36489e-008
vernier = 0.00175205
Gmin = 1.35967e-008
vernier = 0.00233607
vernier = 0.00311476
Gmin = 1.35117e-008
vernier = 0.00415301
vernier = 0.00553735
Gmin = 1.3378e-008
vernier = 0.00276867
vernier = 0.00369156
Gmin = 1.33011e-008
vernier = 0.00492209
vernier = 0.00246104
vernier = 0.00123052
Gmin = 1.32561e-008
vernier = 0.00164069
vernier = 0.00218759
Gmin = 1.31947e-008
vernier = 0.00291679
vernier = 0.00388905
Gmin = 1.30973e-008
vernier = 0.0051854
vernier = 0.0025927
vernier = 0.00129635
Gmin = 1.30338e-008
vernier = 0.00172847
vernier = 0.00230462
Gmin = 1.29766e-008
vernier = 0.00307283
Gmin = 1.28873e-008
vernier = 0.0040971
vernier = 0.0054628
vernier = 0.0027314
vernier = 0.0013657
Gmin = 1.2804e-008
vernier = 0.00182093
Gmin = 1.27516e-008
vernier = 0.00242791
vernier = 0.00323721
Gmin = 1.26642e-008
vernier = 0.00431628
vernier = 0.00215814
vernier = 0.00107907
Gmin = 1.26267e-008
vernier = 0.00143876
vernier = 0.00191835
Gmin = 1.25754e-008
vernier = 0.0025578
vernier = 0.00341039
Gmin = 1.24939e-008
vernier = 0.00454719
vernier = 0.00227359
vernier = 0.0011368
Gmin = 1.24408e-008
vernier = 0.00151573
vernier = 0.00202097
Gmin = 1.2393e-008
vernier = 0.00269463
Gmin = 1.23181e-008
vernier = 0.00359284
vernier = 0.00479045
vernier = 0.00239522
vernier = 0.00119761
Gmin = 1.22482e-008
vernier = 0.00159682
Gmin = 1.22043e-008
vernier = 0.00212909
vernier = 0.00283878
Gmin = 1.21309e-008
vernier = 0.00378504
vernier = 0.00189252
vernier = 0.00252336
Gmin = 1.20775e-008
vernier = 0.00336448
Gmin = 1.1989e-008
vernier = 0.00448597
vernier = 0.00224299
vernier = 0.00112149
vernier = 0.00149532
Gmin = 1.19576e-008
vernier = 0.00199376
Gmin = 1.19056e-008
vernier = 0.00265835
vernier = 0.00354447
Gmin = 1.18209e-008
vernier = 0.00472596
vernier = 0.00236298
vernier = 0.00118149
Gmin = 1.17756e-008
vernier = 0.00157532
vernier = 0.00210042
Gmin = 1.17259e-008
vernier = 0.00280057
vernier = 0.00373409
Gmin = 1.16475e-008
vernier = 0.00497878
vernier = 0.00248939
vernier = 0.0012447
Gmin = 1.15861e-008
vernier = 0.00165959
vernier = 0.00221279
Gmin = 1.15401e-008
vernier = 0.00295039
Gmin = 1.14659e-008
vernier = 0.00393385
vernier = 0.00524513
vernier = 0.00262256
vernier = 0.00131128
Gmin = 1.139e-008
vernier = 0.00174838
Gmin = 1.13466e-008
vernier = 0.00233117
vernier = 0.00310822
Gmin = 1.12757e-008
vernier = 0.00414429
vernier = 0.00552572
Gmin = 1.11644e-008
vernier = 0.00276286
vernier = 0.00138143
vernier = 0.00184191
Gmin = 1.11451e-008
vernier = 0.00245588
vernier = 0.0032745
Gmin = 1.10798e-008
vernier = 0.004366
vernier = 0.002183
Gmin = 1.10165e-008
vernier = 0.00291067
vernier = 0.00388089
Gmin = 1.09353e-008
vernier = 0.00517451
vernier = 0.00258726
vernier = 0.00129363
Gmin = 1.08824e-008
vernier = 0.00172484
vernier = 0.00229978
Gmin = 1.08348e-008
vernier = 0.00306638
Gmin = 1.07603e-008
vernier = 0.0040885
vernier = 0.00545133
vernier = 0.00272567
vernier = 0.00136283
Gmin = 1.06909e-008
vernier = 0.00181711
Gmin = 1.06473e-008
vernier = 0.00242281
vernier = 0.00323042
Gmin = 1.05745e-008
vernier = 0.00430722
vernier = 0.00215361
vernier = 0.00107681
Gmin = 1.05433e-008
vernier = 0.00143574
vernier = 0.00191432
Gmin = 1.05005e-008
vernier = 0.00255243
vernier = 0.00340323
Gmin = 1.04326e-008
vernier = 0.00453764
vernier = 0.00226882
vernier = 0.00113441
Gmin = 1.03883e-008
vernier = 0.00151255
vernier = 0.00201673
Gmin = 1.03485e-008
vernier = 0.00268897
Gmin = 1.02861e-008
vernier = 0.0035853
vernier = 0.00478039
vernier = 0.0023902
vernier = 0.0011951
Gmin = 1.02279e-008
vernier = 0.00159346
Gmin = 1.01913e-008
vernier = 0.00212462
vernier = 0.00283282
Gmin = 1.01301e-008
vernier = 0.0037771
vernier = 0.00503613
vernier = 0.00251806
Gmin = 1.00587e-008
vernier = 0.00125903
vernier = 0.00167871
Gmin = 1.0026e-008
vernier = 0.00223828
vernier = 0.00298437
Gmin = 9.96915e-009
vernier = 0.00397916
Gmin = 9.88034e-009
vernier = 0.00530554
vernier = 0.00265277
vernier = 0.00132639
vernier = 0.00176851
Gmin = 9.85525e-009
vernier = 0.00235802
Gmin = 9.80312e-009
vernier = 0.00314402
vernier = 0.00419203
Gmin = 9.71622e-009
vernier = 0.00558937
vernier = 0.00279469
vernier = 0.00139734
Gmin = 9.67897e-009
vernier = 0.00186312
vernier = 0.00248416
Gmin = 9.62802e-009
vernier = 0.00331222
vernier = 0.00441629
vernier = 0.00220814
Gmin = 9.56844e-009
vernier = 0.00110407
vernier = 0.0014721
Gmin = 9.54119e-009
vernier = 0.00196279
vernier = 0.00261706
Gmin = 9.49372e-009
vernier = 0.00348941
Gmin = 9.41951e-009
vernier = 0.00465255
vernier = 0.00232627
vernier = 0.00116314
vernier = 0.00155085
Gmin = 9.39853e-009
vernier = 0.0020678
Gmin = 9.35492e-009
vernier = 0.00275706
vernier = 0.00367608
Gmin = 9.28215e-009
vernier = 0.00490144
vernier = 0.00245072
vernier = 0.00122536
Gmin = 9.25094e-009
vernier = 0.00163381
vernier = 0.00217842
Gmin = 9.20822e-009
vernier = 0.00290456
vernier = 0.00387274
Gmin = 9.14052e-009
vernier = 0.00516365
vernier = 0.00258183
vernier = 0.00129091
Gmin = 9.0964e-009
vernier = 0.00172122
vernier = 0.00229496
Gmin = 9.0567e-009
vernier = 0.00305994
Gmin = 8.99458e-009
vernier = 0.00407992
vernier = 0.00543989
vernier = 0.00271995
vernier = 0.00135997
Gmin = 8.93669e-009
vernier = 0.0018133
Gmin = 8.90031e-009
vernier = 0.00241773
vernier = 0.00322364
Gmin = 8.83957e-009
vernier = 0.00429818
vernier = 0.00214909
vernier = 0.00107455
Gmin = 8.8135e-009
vernier = 0.00143273
vernier = 0.0019103
Gmin = 8.7778e-009
vernier = 0.00254707
vernier = 0.00339609
Gmin = 8.72118e-009
vernier = 0.00452812
vernier = 0.00226406
vernier = 0.00113203
Gmin = 8.68425e-009
vernier = 0.00150937
vernier = 0.0020125
Gmin = 8.651e-009
vernier = 0.00268333
Gmin = 8.59895e-009
vernier = 0.00357777
vernier = 0.00477036
vernier = 0.00238518
vernier = 0.00119259
Gmin = 8.55039e-009
vernier = 0.00159012
Gmin = 8.51986e-009
vernier = 0.00212016
vernier = 0.00282688
Gmin = 8.46885e-009
vernier = 0.00376917
vernier = 0.00502556
vernier = 0.00251278
Gmin = 8.40924e-009
vernier = 0.00125639
vernier = 0.00167519
Gmin = 8.38199e-009
vernier = 0.00223358
vernier = 0.00297811
Gmin = 8.33456e-009
vernier = 0.00397081
Gmin = 8.26046e-009
vernier = 0.00529441
vernier = 0.0026472
vernier = 0.0013236
vernier = 0.0017648
Gmin = 8.23953e-009
vernier = 0.00235307
Gmin = 8.19604e-009
vernier = 0.00313742
vernier = 0.00418323
Gmin = 8.12353e-009
vernier = 0.00557764
vernier = 0.00278882
vernier = 0.00139441
Gmin = 8.09245e-009
vernier = 0.00185921
vernier = 0.00247895
Gmin = 8.04995e-009
vernier = 0.00330527
vernier = 0.00440702
vernier = 0.00220351
Gmin = 8.00023e-009
vernier = 0.00110175
vernier = 0.00146901
Gmin = 7.9775e-009
vernier = 0.00195867
vernier = 0.00261157
Gmin = 7.93789e-009
vernier = 0.00348209
Gmin = 7.87597e-009
vernier = 0.00464278
vernier = 0.00232139
vernier = 0.0011607
vernier = 0.00154759
Gmin = 7.85847e-009
vernier = 0.00206346
Gmin = 7.82208e-009
vernier = 0.00275128
vernier = 0.00366837
Gmin = 7.76137e-009
vernier = 0.00489115
vernier = 0.00244558
vernier = 0.00122279
Gmin = 7.73532e-009
vernier = 0.00163038
vernier = 0.00217384
Gmin = 7.69968e-009
vernier = 0.00289846
vernier = 0.00386461
Gmin = 7.64318e-009
vernier = 0.00515281
vernier = 0.00257641
vernier = 0.0012882
Gmin = 7.60637e-009
vernier = 0.0017176
vernier = 0.00229014
Gmin = 7.57324e-009
vernier = 0.00305352
Gmin = 7.5214e-009
vernier = 0.00407135
vernier = 0.00542847
vernier = 0.00271424
Gmin = 7.4655e-009
vernier = 0.00361898
vernier = 0.00482531
Gmin = 7.40108e-009
vernier = 0.00241265
vernier = 0.00120633
vernier = 0.00160843
Gmin = 7.38993e-009
vernier = 0.00214458
vernier = 0.00285944
Gmin = 7.35206e-009
vernier = 0.00381258
Gmin = 7.29103e-009
vernier = 0.00508344
vernier = 0.00254172
vernier = 0.00127086
vernier = 0.00169448
Gmin = 7.26944e-009
vernier = 0.00225931
Gmin = 7.23361e-009
vernier = 0.00301241
vernier = 0.00401654
Gmin = 7.17531e-009
vernier = 0.00535539
vernier = 0.0026777
vernier = 0.00133885
Gmin = 7.14417e-009
vernier = 0.00178513
vernier = 0.00238017
Gmin = 7.10999e-009
vernier = 0.00317356
vernier = 0.00423142
Gmin = 7.05615e-009
vernier = 0.00211571
vernier = 0.00105785
vernier = 0.00141047
Gmin = 7.04683e-009
vernier = 0.00188063
vernier = 0.0025075
Gmin = 7.01516e-009
vernier = 0.00334334
Gmin = 6.96406e-009
vernier = 0.00445778
vernier = 0.00222889
vernier = 0.00111445
vernier = 0.00148593
Gmin = 6.94598e-009
vernier = 0.00198124
Gmin = 6.91594e-009
vernier = 0.00264165
vernier = 0.00352219
vernier = 0.0017611
Gmin = 6.88216e-009
vernier = 0.00234813
Gmin = 6.84591e-009
vernier = 0.00313084
vernier = 0.00417445
Gmin = 6.78548e-009
vernier = 0.00556593
vernier = 0.00278297
vernier = 0.00139148
Gmin = 6.75957e-009
vernier = 0.00185531
vernier = 0.00247375
Gmin = 6.72414e-009
vernier = 0.00329833
vernier = 0.00439777
vernier = 0.00219888
Gmin = 6.6827e-009
vernier = 0.00109944
vernier = 0.00146592
Gmin = 6.66375e-009
vernier = 0.00195456
vernier = 0.00260608
Gmin = 6.63073e-009
vernier = 0.00347478
vernier = 0.00173739
Gmin = 6.602e-009
vernier = 0.00231652
vernier = 0.00308869
Gmin = 6.56104e-009
vernier = 0.00411825
vernier = 0.00205913
Gmin = 6.52905e-009
vernier = 0.0027455
vernier = 0.00366067
Gmin = 6.47847e-009
vernier = 0.00488089
vernier = 0.00244044
vernier = 0.00122022
Gmin = 6.45678e-009
vernier = 0.00162696
vernier = 0.00216928
Gmin = 6.42709e-009
vernier = 0.00289237
vernier = 0.0038565
vernier = 0.00192825
Gmin = 6.39234e-009
vernier = 0.002571
Gmin = 6.3565e-009
vernier = 0.003428
vernier = 0.001714
vernier = 0.00228533
Gmin = 6.33159e-009
vernier = 0.00304711
Gmin = 6.28834e-009
vernier = 0.00406281
vernier = 0.00541708
vernier = 0.00270854
vernier = 0.00135427
Gmin = 6.24804e-009
vernier = 0.00180569
Gmin = 6.22271e-009
vernier = 0.00240759
vernier = 0.00321012
Gmin = 6.18042e-009
vernier = 0.00428015
vernier = 0.00214008
vernier = 0.00285344
Gmin = 6.14965e-009
vernier = 0.00380458
vernier = 0.00190229
Gmin = 6.11903e-009
vernier = 0.00253639
vernier = 0.00338185
vernier = 0.00169092
Gmin = 6.09e-009
vernier = 0.00225456
Gmin = 6.06005e-009
vernier = 0.00300608
vernier = 0.00400811
vernier = 0.00200406
Gmin = 6.02638e-009
vernier = 0.00267207
Gmin = 5.99027e-009
vernier = 0.00356276
vernier = 0.00178138
vernier = 0.00237518
Gmin = 5.96631e-009
vernier = 0.0031669
vernier = 0.00422253
Gmin = 5.92123e-009
vernier = 0.00211127
vernier = 0.00105563
vernier = 0.00140751
Gmin = 5.91342e-009
vernier = 0.00187668
vernier = 0.00250224
Gmin = 5.8869e-009
vernier = 0.00333632
vernier = 0.00166816
vernier = 0.00083408
Gmin = 5.86608e-009
vernier = 0.00111211
vernier = 0.00148281
Gmin = 5.85047e-009
vernier = 0.00197708
Gmin = 5.82523e-009
vernier = 0.0026361
vernier = 0.0035148
vernier = 0.0017574
Gmin = 5.79683e-009
vernier = 0.0023432
Gmin = 5.76636e-009
vernier = 0.00312427
vernier = 0.00416569
vernier = 0.00208284
vernier = 0.00104142
Gmin = 5.73791e-009
vernier = 0.00138856
Gmin = 5.72002e-009
vernier = 0.00185142
vernier = 0.00246855
Gmin = 5.6901e-009
vernier = 0.0032914
vernier = 0.0016457
vernier = 0.000822851
Gmin = 5.67724e-009
vernier = 0.00109713
vernier = 0.00146285
Gmin = 5.65962e-009
vernier = 0.00195046
vernier = 0.00260061
Gmin = 5.63164e-009
vernier = 0.00346748
vernier = 0.00173374
Gmin = 5.60729e-009
vernier = 0.00231165
vernier = 0.0030822
Gmin = 5.57258e-009
vernier = 0.00410961
vernier = 0.00547947
Gmin = 5.51801e-009
vernier = 0.00273974
vernier = 0.00136987
vernier = 0.00182649
Gmin = 5.50856e-009
vernier = 0.00243532
vernier = 0.00324709
Gmin = 5.47653e-009
vernier = 0.00162355
vernier = 0.000811773
vernier = 0.00108236
Gmin = 5.47097e-009
vernier = 0.00144315
vernier = 0.0019242
Gmin = 5.45209e-009
vernier = 0.0025656
Gmin = 5.42159e-009
vernier = 0.0034208
vernier = 0.0017104
vernier = 0.00228053
Gmin = 5.40038e-009
vernier = 0.00304071
Gmin = 5.36358e-009
vernier = 0.00405428
vernier = 0.00202714
vernier = 0.00270285
Gmin = 5.33917e-009
vernier = 0.0036038
vernier = 0.0018019
vernier = 0.000900951
Gmin = 5.32357e-009
vernier = 0.00120127
vernier = 0.00160169
Gmin = 5.30641e-009
vernier = 0.00213558
vernier = 0.00284745
Gmin = 5.27934e-009
vernier = 0.00379659
vernier = 0.0018983
vernier = 0.000949148
Gmin = 5.25809e-009
vernier = 0.00126553
vernier = 0.00168737
Gmin = 5.24218e-009
vernier = 0.00224983
Gmin = 5.21645e-009
vernier = 0.00299977
vernier = 0.0039997
vernier = 0.00199985
Gmin = 5.18752e-009
vernier = 0.00266646
Gmin = 5.1565e-009
vernier = 0.00355529
vernier = 0.00177764
vernier = 0.00237019
Gmin = 5.13592e-009
vernier = 0.00316025
vernier = 0.00421367
Gmin = 5.0972e-009
vernier = 0.00210683
vernier = 0.00105342
vernier = 0.00140456
Gmin = 5.09049e-009
vernier = 0.00187274
vernier = 0.00249699
Gmin = 5.06771e-009
vernier = 0.00332932
vernier = 0.00166466
vernier = 0.000832329
Gmin = 5.04982e-009
vernier = 0.00110977
vernier = 0.00147969
Gmin = 5.03641e-009
vernier = 0.00197293
Gmin = 5.01473e-009
vernier = 0.00263057
vernier = 0.00350742
vernier = 0.00175371
Gmin = 4.99033e-009
vernier = 0.00233828
Gmin = 4.96416e-009
vernier = 0.00311771
vernier = 0.00415694
vernier = 0.00207847
vernier = 0.00103924
Gmin = 4.93972e-009
vernier = 0.00138565
Gmin = 4.92435e-009
vernier = 0.00184753
vernier = 0.00246337
Gmin = 4.89864e-009
vernier = 0.00328449
vernier = 0.00164225
vernier = 0.000821124
Gmin = 4.8876e-009
vernier = 0.00109483
vernier = 0.00145977
Gmin = 4.87246e-009
vernier = 0.00194637
vernier = 0.00259515
Gmin = 4.84842e-009
vernier = 0.0034602
vernier = 0.0017301
Gmin = 4.8275e-009
vernier = 0.0023068
vernier = 0.00307573
Gmin = 4.79768e-009
vernier = 0.00410098
vernier = 0.00546797
Gmin = 4.75079e-009
vernier = 0.00729063
vernier = 0.00364531
vernier = 0.00182266
vernier = 0.000911328
Gmin = 4.71738e-009
vernier = 0.0012151
Gmin = 4.7045e-009
vernier = 0.00162014
vernier = 0.00216018
Gmin = 4.68296e-009
vernier = 0.00288024
vernier = 0.00384032
vernier = 0.00192016
Gmin = 4.65775e-009
vernier = 0.000960081
vernier = 0.00128011
Gmin = 4.64621e-009
vernier = 0.00170681
vernier = 0.00227575
Gmin = 4.6261e-009
vernier = 0.00303433
Gmin = 4.59464e-009
vernier = 0.00404577
vernier = 0.00539436
vernier = 0.00269718
Gmin = 4.5607e-009
vernier = 0.00359624
vernier = 0.00479498
Gmin = 4.52159e-009
vernier = 0.00239749
vernier = 0.00119875
vernier = 0.00159833
Gmin = 4.51482e-009
vernier = 0.0021311
vernier = 0.00284147
Gmin = 4.49183e-009
vernier = 0.00378862
vernier = 0.00189431
vernier = 0.000947156
Gmin = 4.47379e-009
vernier = 0.00126287
vernier = 0.00168383
Gmin = 4.46028e-009
vernier = 0.00224511
Gmin = 4.43843e-009
vernier = 0.00299348
vernier = 0.0039913
vernier = 0.00199565
Gmin = 4.41388e-009
vernier = 0.00266087
Gmin = 4.38754e-009
vernier = 0.00354782
vernier = 0.00177391
vernier = 0.00236521
Gmin = 4.37007e-009
vernier = 0.00315362
vernier = 0.00420482
Gmin = 4.33718e-009
vernier = 0.00210241
vernier = 0.00105121
vernier = 0.00140161
Gmin = 4.33149e-009
vernier = 0.00186881
vernier = 0.00249175
Gmin = 4.31214e-009
vernier = 0.00332233
vernier = 0.00166116
vernier = 0.000830582
Gmin = 4.29695e-009
vernier = 0.00110744
vernier = 0.00147659
Gmin = 4.28557e-009
vernier = 0.00196878
Gmin = 4.26715e-009
vernier = 0.00262505
vernier = 0.00350006
vernier = 0.00175003
Gmin = 4.24644e-009
vernier = 0.00233337
Gmin = 4.22421e-009
vernier = 0.00311116
vernier = 0.00414822
vernier = 0.00207411
vernier = 0.00103705
Gmin = 4.20346e-009
vernier = 0.00138274
Gmin = 4.19041e-009
vernier = 0.00184365
vernier = 0.0024582
Gmin = 4.16858e-009
vernier = 0.0032776
vernier = 0.0016388
vernier = 0.00218507
Gmin = 4.15268e-009
vernier = 0.00291342
Gmin = 4.1263e-009
vernier = 0.00388456
vernier = 0.00194228
vernier = 0.00097114
vernier = 0.00129485
Gmin = 4.11696e-009
vernier = 0.00172647
Gmin = 4.10145e-009
vernier = 0.00230196
vernier = 0.00306928
Gmin = 4.07616e-009
vernier = 0.00409237
vernier = 0.00204619
vernier = 0.00102309
Gmin = 4.06263e-009
vernier = 0.00136412
vernier = 0.00181883
Gmin = 4.04777e-009
vernier = 0.00242511
vernier = 0.00323347
Gmin = 4.02433e-009
vernier = 0.00161674
vernier = 0.00215565
Gmin = 4.0108e-009
vernier = 0.0028742
vernier = 0.00383226
vernier = 0.00191613
Gmin = 3.98925e-009
vernier = 0.000958066
vernier = 0.00127742
Gmin = 3.97939e-009
vernier = 0.00170323
vernier = 0.00227097
Gmin = 3.9622e-009
vernier = 0.00302796
Gmin = 3.93531e-009
vernier = 0.00403728
vernier = 0.00201864
vernier = 0.00269152
Gmin = 3.91748e-009
vernier = 0.00358869
vernier = 0.00179434
vernier = 0.000897172
Gmin = 3.90608e-009
vernier = 0.00119623
vernier = 0.00159497
Gmin = 3.89354e-009
vernier = 0.00212663
vernier = 0.0028355
Gmin = 3.87376e-009
vernier = 0.00378067
vernier = 0.00189034
Gmin = 3.85459e-009
vernier = 0.00252045
vernier = 0.00336059
vernier = 0.0016803
Gmin = 3.83643e-009
vernier = 0.000840149
vernier = 0.0011202
Gmin = 3.82811e-009
vernier = 0.0014936
vernier = 0.00199146
Gmin = 3.81361e-009
vernier = 0.00265528
Gmin = 3.7909e-009
vernier = 0.00354038
vernier = 0.00177019
vernier = 0.00236025
Gmin = 3.77583e-009
vernier = 0.003147
vernier = 0.004196
Gmin = 3.74748e-009
vernier = 0.002098
vernier = 0.001049
vernier = 0.00139867
Gmin = 3.74257e-009
vernier = 0.00186489
vernier = 0.00248651
Gmin = 3.72589e-009
vernier = 0.00331535
vernier = 0.00165768
vernier = 0.000828838
Gmin = 3.71279e-009
vernier = 0.00110512
vernier = 0.00147349
Gmin = 3.70298e-009
vernier = 0.00196465
Gmin = 3.6871e-009
vernier = 0.00261953
vernier = 0.00349271
vernier = 0.00174636
vernier = 0.000873178
Gmin = 3.67084e-009
vernier = 0.00116424
Gmin = 3.66151e-009
vernier = 0.00155232
vernier = 0.00206975
Gmin = 3.64627e-009
vernier = 0.00275967
vernier = 0.00367956
Gmin = 3.62225e-009
vernier = 0.00183978
vernier = 0.00091989
vernier = 0.00122652
Gmin = 3.61808e-009
vernier = 0.00163536
vernier = 0.00218048
Gmin = 3.60394e-009
vernier = 0.0029073
Gmin = 3.5811e-009
vernier = 0.0038764
vernier = 0.0019382
vernier = 0.00258427
Gmin = 3.56523e-009
vernier = 0.00344569
vernier = 0.00172285
Gmin = 3.54991e-009
vernier = 0.00229713
vernier = 0.00306284
Gmin = 3.52807e-009
vernier = 0.00408378
vernier = 0.00544504
Gmin = 3.49374e-009
vernier = 0.00272252
vernier = 0.00136126
vernier = 0.00181501
Gmin = 3.4878e-009
vernier = 0.00242002
vernier = 0.00322669
Gmin = 3.46764e-009
vernier = 0.00161334
vernier = 0.000806672
vernier = 0.00107556
Gmin = 3.46414e-009
vernier = 0.00143408
vernier = 0.00191211
Gmin = 3.45227e-009
vernier = 0.00254948
Gmin = 3.43307e-009
vernier = 0.0033993
vernier = 0.00169965
vernier = 0.000849826
vernier = 0.0011331
Gmin = 3.42627e-009
vernier = 0.0015108
Gmin = 3.41497e-009
vernier = 0.0020144
vernier = 0.00268587
Gmin = 3.39654e-009
vernier = 0.00358115
vernier = 0.00179058
vernier = 0.000895289
Gmin = 3.38667e-009
vernier = 0.00119372
vernier = 0.00159162
Gmin = 3.37582e-009
vernier = 0.00212216
vernier = 0.00282955
Gmin = 3.35871e-009
vernier = 0.00377273
vernier = 0.00188637
Gmin = 3.34212e-009
vernier = 0.00251516
vernier = 0.00335354
vernier = 0.00167677
Gmin = 3.3264e-009
vernier = 0.00223569
Gmin = 3.31018e-009
vernier = 0.00298092
vernier = 0.00397456
vernier = 0.00198728
Gmin = 3.29194e-009
vernier = 0.00264971
Gmin = 3.27238e-009
vernier = 0.00353294
vernier = 0.00176647
vernier = 0.000883236
vernier = 0.00117765
Gmin = 3.26685e-009
vernier = 0.0015702
Gmin = 3.25533e-009
vernier = 0.00209359
vernier = 0.00279146
Gmin = 3.23608e-009
vernier = 0.00372194
vernier = 0.00186097
vernier = 0.000930486
Gmin = 3.22781e-009
vernier = 0.00124065
vernier = 0.0016542
Gmin = 3.21649e-009
vernier = 0.00220559
vernier = 0.00294079
Gmin = 3.19851e-009
vernier = 0.00392106
vernier = 0.00196053
Gmin = 3.18288e-009
vernier = 0.00261404
vernier = 0.00348538
vernier = 0.00174269
Gmin = 3.16749e-009
vernier = 0.00232359
Gmin = 3.15098e-009
vernier = 0.00309811
vernier = 0.00413082
Gmin = 3.12345e-009
vernier = 0.00550776
vernier = 0.00275388
vernier = 0.00137694
Gmin = 3.11165e-009
vernier = 0.00183592
vernier = 0.00244789
Gmin = 3.09551e-009
vernier = 0.00326385
vernier = 0.00163193
vernier = 0.000815963
Gmin = 3.08858e-009
vernier = 0.00108795
vernier = 0.0014506
Gmin = 3.07907e-009
vernier = 0.00193413
vernier = 0.00257884
Gmin = 3.06398e-009
vernier = 0.00343846
vernier = 0.00171923
Gmin = 3.05084e-009
vernier = 0.00229231
vernier = 0.00305641
Gmin = 3.03211e-009
vernier = 0.00407521
vernier = 0.00543361
Gmin = 3.00266e-009
vernier = 0.0027168
vernier = 0.0013584
vernier = 0.0018112
Gmin = 2.99757e-009
vernier = 0.00241494
vernier = 0.00321991
Gmin = 2.98028e-009
vernier = 0.00160996
vernier = 0.000804978
vernier = 0.0010733
Gmin = 2.97728e-009
vernier = 0.00143107
vernier = 0.0019081
Gmin = 2.96709e-009
vernier = 0.00254413
Gmin = 2.95063e-009
vernier = 0.00339217
vernier = 0.00169608
vernier = 0.000848042
vernier = 0.00113072
Gmin = 2.9448e-009
vernier = 0.00150763
Gmin = 2.93511e-009
vernier = 0.00201017
vernier = 0.00268023
Gmin = 2.9193e-009
vernier = 0.00357364
vernier = 0.00178682
vernier = 0.000893409
Gmin = 2.91083e-009
vernier = 0.00119121
vernier = 0.00158828
Gmin = 2.90153e-009
vernier = 0.00211771
vernier = 0.00282361
Gmin = 2.88685e-009
vernier = 0.00376481
vernier = 0.00188241
vernier = 0.000941204
Gmin = 2.87533e-009
vernier = 0.00125494
vernier = 0.00167325
Gmin = 2.8667e-009
vernier = 0.002231
Gmin = 2.85275e-009
vernier = 0.00297467
vernier = 0.00396622
vernier = 0.00198311
Gmin = 2.83706e-009
vernier = 0.00264415
Gmin = 2.82024e-009
vernier = 0.00352553
vernier = 0.00176276
vernier = 0.00235035
Gmin = 2.80908e-009
vernier = 0.0031338
vernier = 0.0041784
Gmin = 2.78807e-009
vernier = 0.0020892
vernier = 0.0027856
Gmin = 2.77597e-009
vernier = 0.00371413
vernier = 0.00185707
vernier = 0.00247609
Gmin = 2.76397e-009
vernier = 0.00330145
vernier = 0.00165072
vernier = 0.000825362
Gmin = 2.75429e-009
vernier = 0.00110048
vernier = 0.00146731
Gmin = 2.74704e-009
vernier = 0.00195641
Gmin = 2.73531e-009
vernier = 0.00260855
vernier = 0.00347806
vernier = 0.00173903
Gmin = 2.72212e-009
vernier = 0.00231871
Gmin = 2.70796e-009
vernier = 0.00309161
vernier = 0.00412215
vernier = 0.00206107
vernier = 0.00103054
Gmin = 2.69474e-009
vernier = 0.00137405
Gmin = 2.68642e-009
vernier = 0.00183206
vernier = 0.00244275
Gmin = 2.67252e-009
vernier = 0.003257
vernier = 0.0016285
vernier = 0.00081425
Gmin = 2.66654e-009
vernier = 0.00108567
vernier = 0.00144756
Gmin = 2.65835e-009
vernier = 0.00193007
vernier = 0.00257343
Gmin = 2.64535e-009
vernier = 0.00343124
vernier = 0.00171562
vernier = 0.00085781
Gmin = 2.63685e-009
vernier = 0.00114375
vernier = 0.00152499
Gmin = 2.6292e-009
vernier = 0.00203333
Gmin = 2.6172e-009
vernier = 0.0027111
vernier = 0.0036148
vernier = 0.0018074
Gmin = 2.60423e-009
vernier = 0.00240987
vernier = 0.00321315
Gmin = 2.58924e-009
vernier = 0.00160658
vernier = 0.000803289
vernier = 0.00107105
Gmin = 2.58664e-009
vernier = 0.00142807
vernier = 0.00190409
Gmin = 2.57781e-009
vernier = 0.00253879
Gmin = 2.56354e-009
vernier = 0.00338505
vernier = 0.00169252
vernier = 0.000846262
vernier = 0.00112835
Gmin = 2.55848e-009
vernier = 0.00150446
Gmin = 2.55008e-009
vernier = 0.00200595
vernier = 0.0026746
Gmin = 2.53637e-009
vernier = 0.00356614
vernier = 0.00178307
vernier = 0.000891534
Gmin = 2.52903e-009
vernier = 0.00118871
vernier = 0.00158495
Gmin = 2.52097e-009
vernier = 0.00211326
vernier = 0.00281768
Gmin = 2.50824e-009
vernier = 0.00375691
vernier = 0.00187846
vernier = 0.000939228
Gmin = 2.49825e-009
vernier = 0.0012523
vernier = 0.00166974
Gmin = 2.49077e-009
vernier = 0.00222632
Gmin = 2.47867e-009
vernier = 0.00296842
vernier = 0.00395789
vernier = 0.00197895
Gmin = 2.46507e-009
vernier = 0.0026386
Gmin = 2.45048e-009
vernier = 0.00351813
vernier = 0.00175906
vernier = 0.00234542
Gmin = 2.44081e-009
vernier = 0.00312722
vernier = 0.00416963
Gmin = 2.42259e-009
vernier = 0.00208481
vernier = 0.00104241
vernier = 0.00138988
Gmin = 2.41944e-009
vernier = 0.00185317
vernier = 0.00247089
Gmin = 2.40872e-009
vernier = 0.00329452
vernier = 0.00164726
vernier = 0.000823629
Gmin = 2.40031e-009
vernier = 0.00109817
vernier = 0.00146423
Gmin = 2.394e-009
vernier = 0.00195231
Gmin = 2.3838e-009
vernier = 0.00260307
vernier = 0.00347076
vernier = 0.00173538
Gmin = 2.37233e-009
vernier = 0.00231384
Gmin = 2.36001e-009
vernier = 0.00308512
vernier = 0.00411349
vernier = 0.00205675
vernier = 0.00102837
Gmin = 2.34852e-009
vernier = 0.00137116
Gmin = 2.34128e-009
vernier = 0.00182822
vernier = 0.00243762
Gmin = 2.32919e-009
vernier = 0.00325016
vernier = 0.00162508
vernier = 0.000812541
Gmin = 2.32399e-009
vernier = 0.00108339
vernier = 0.00144452
Gmin = 2.31687e-009
vernier = 0.00192602
vernier = 0.00256803
Gmin = 2.30556e-009
vernier = 0.00342404
vernier = 0.00171202
Gmin = 2.29572e-009
vernier = 0.00228269
vernier = 0.00304359
Gmin = 2.28168e-009
vernier = 0.00405812
vernier = 0.00202906
vernier = 0.00101453
Gmin = 2.27417e-009
vernier = 0.0013527
vernier = 0.00180361
Gmin = 2.26592e-009
vernier = 0.00240481
vernier = 0.00320641
Gmin = 2.25291e-009
vernier = 0.00427521
vernier = 0.00213761
vernier = 0.0010688
vernier = 0.000534401
vernier = 0.000400801
Gmin = 2.2439e-009
Gmin = 0
Gmin stepping failed

Starting source stepping with srcstepmethod=0
Source Step = 3.0303%
Source Step = 13.0682%
Source Step = 14.9621%
Source Step = 16.8561%
Source Step = 18.75%
Source Step = 20.6439%
vernier = 0.09375
Source Step = 22.9167%
Source Step = 25.7576%
Source Step = 28.5985%
Source Step = 30.09%
Source Step = 30.8002%
Source Step = 31.5104%
Source Step = 32.2206%
Source Step = 32.9309%
vernier = 0.0351563
Source Step = 33.7831%
Source Step = 34.8485%
Source Step = 35.9138%
Source Step = 36.9792%
Source Step = 38.0445%
vernier = 0.0527344
Source Step = 38.8002%
Source Step = 38.9001%
Source Step = 39%
Source Step = 39.0999%
Source Step = 39.1997%
Source Step = 39.2996%
vernier = 0.00494385
Source Step = 39.4095%
Source Step = 39.5593%
Source Step = 39.7091%
Source Step = 39.8589%
Source Step = 40.0087%
vernier = 0.00741577
Source Step = 40.166%
Source Step = 40.3908%
Source Step = 40.6155%
Source Step = 40.8402%
Source Step = 41.0649%
Source Step = 41.2896%
vernier = 0.0111237
Source Step = 41.6267%
Source Step = 41.9638%
Source Step = 42.3009%
Source Step = 42.638%
Source Step = 42.975%
vernier = 0.0166855
Source Step = 43.4638%
Source Step = 43.9694%
Source Step = 44.475%
Source Step = 44.9807%
Source Step = 45.4863%
vernier = 0.0250282
Source Step = 46.1942%
Source Step = 46.9526%
Source Step = 47.711%
Source Step = 48.4695%
Source Step = 49.2279%
vernier = 0.0375423
Source Step = 50.2518%
Source Step = 51.3894%
Source Step = 52.5271%
Source Step = 53.6647%
Source Step = 54.8024%
vernier = 0.0563135
Source Step = 56.2813%
Source Step = 57.9878%
Source Step = 59.6942%
Source Step = 61.4007%
Source Step = 63.1072%
vernier = 0.0844703
Source Step = 65.2403%
Source Step = 67.8%
Source Step = 70.3597%
Source Step = 72.9194%
Source Step = 75.4791%
vernier = 0.126705
Source Step = 78.5507%
Source Step = 82.3903%
Source Step = 86.2298%
Source Step = 90.0694%
Source Step = 93.909%
vernier = 0.190058
Source Step = 98.3245%
Source Step = 98.6844%
Source Step = 98.7744%
Source Step = 98.8644%
Source Step = 98.9544%
Source Step = 99.0444%
vernier = 0.00445449
Source Step = 99.1141%
Source Step = 99.1479%
Starting source stepping with srcstepmethod=1
Source Step = 3.0303%
Source Step = 33.3333%
Source Step = 63.6364%
Source Step = 93.9394%
Source Step = 100%
Source Step = 99.7576%
Source Step = 100%
Source Step = 100%
Source stepping succeeded in finding the operating point.

.step run=1
.step run=2
.step run=3
.step run=4
.step run=5
.step run=6
.step run=7
.step run=8
.step run=9
.step run=10
.step run=11
.step run=12
.step run=13
.step run=14
.step run=15
.step run=16
.step run=17
.step run=18
.step run=19
.step run=20
.step run=21
.step run=22
.step run=23
.step run=24
.step run=25
.step run=26
.step run=27
.step run=28
.step run=29
.step run=30
.step run=31
.step run=32
.step run=33
.step run=34
.step run=35
.step run=36
.step run=37
.step run=38
.step run=39
.step run=40
.step run=41
.step run=42
.step run=43
.step run=44
.step run=45
.step run=46
.step run=47
.step run=48
.step run=49
.step run=50
.step run=51
.step run=52
.step run=53
.step run=54
.step run=55
.step run=56
.step run=57
.step run=58
.step run=59
.step run=60
.step run=61
.step run=62
.step run=63
.step run=64
.step run=65
.step run=66
.step run=67
.step run=68
.step run=69
.step run=70
.step run=71
.step run=72
.step run=73
.step run=74
.step run=75
.step run=76
.step run=77
.step run=78
.step run=79
.step run=80
.step run=81
.step run=82
.step run=83
.step run=84
.step run=85
.step run=86
.step run=87
.step run=88
.step run=89
.step run=90
.step run=91
.step run=92
.step run=93
.step run=94
.step run=95
.step run=96
.step run=97
.step run=98
.step run=99
.step run=100

Date: Mon Feb 13 00:21:43 2017
Total elapsed time: 946.801 seconds.

tnom = 27
temp = 27
method = modified trap
totiter = 41867
traniter = 40645
tranpoints = 10179
accept = 8783
rejected = 1396
matrix size = 202
fillins = 464
Thread vector: 173.7/60.8[4] 35.5/17.4[4] 27.1/18.5[4] 3.3/105.7[1]  2592/500
Matrix Compiler1: 42.18 KB object code size  11.4/6.9/[4.5]
Matrix Compiler2: 33.71 KB object code size  5.0/4.7/[3.0]


