Circuit: * D:\Users\Dan\Documents\GitHub\ThesisWork\LTSpice\TSCSK_Real_WorstCase.asc

WARNING: Less than two connections to node 5V.  This node is used by V3.
Direct Newton iteration failed to find .op point.  (Use ".option noopiter" to skip.)
Starting Gmin stepping
Increasing initial diagonal Gmin to 100
Increasing initial diagonal Gmin to 1000
Gmin = 1000
Gmin = 107.374
Gmin = 11.5292
Gmin = 1.23794
Gmin = 0.132923
Gmin = 0.0142725
Gmin = 0.0015325
Gmin = 0.00016455
Gmin = 1.76685e-005
Gmin = 1.89714e-006
Gmin = 2.03704e-007
Gmin = 2.18725e-008
Gmin = 2.34854e-009
Gmin = 2.52173e-010
Gmin = 2.70769e-011
Gmin = 2.90735e-012
Gmin = 3.12175e-013
Gmin = 0
Gmin stepping succeeded in finding the operating point.


Date: Sat Mar 18 21:41:11 2017
Total elapsed time: 37.510 seconds.

tnom = 27
temp = 27
method = modified trap
totiter = 245664
traniter = 244689
tranpoints = 56310
accept = 42788
rejected = 13522
matrix size = 288
fillins = 332
solver = Alternate
Thread vector: 275.8/80.3[4] 50.8/24.2[4] 22.2/10.7[4] 5.4/4.0[2]  2592/500
Matrix Compiler1: 37.02 KB object code size  53.0/6.6/[4.0]
Matrix Compiler2: 39.61 KB object code size  7.4/8.3/[5.5]


